#       Mol2 file written by Qprep version 5
#       Title of topology: ./RRDiol/RRDiol.top                                                             
#       Co-ordinate source:                                                                                                     

@<TRIPOS>MOLECULE
MOLECULE
  6024   6079    725      0      0
SMALL
USER_CHARGES

@<TRIPOS>ATOM
     1 N            5.903    -2.577   -18.090              1  ILE   -0.500
     2 H            6.041    -2.399   -19.075              1  ILE    0.300
     3 CA           4.573    -3.010   -17.639              1  ILE    0.140
     4 HA           4.404    -4.027   -17.993              1  ILE    0.060
     5 CB           4.415    -2.960   -16.070              1  ILE   -0.060
     6 HB           4.452    -1.917   -15.756              1  ILE    0.060
     7 CG2          3.084    -3.541   -15.648              1  ILE   -0.180
     8 HG21         3.166    -4.029   -14.677              1  ILE    0.060
     9 HG22         2.331    -2.758   -15.565              1  ILE    0.060
    10 HG23         2.731    -4.277   -16.370              1  ILE    0.060
    11 CG1          5.521    -3.748   -15.293              1  ILE   -0.120
    12 HG12         6.514    -3.423   -15.602              1  ILE    0.060
    13 HG13         5.405    -4.782   -15.616              1  ILE    0.060
    14 CD1          5.432    -3.842   -13.756              1  ILE   -0.180
    15 HD11         4.511    -3.385   -13.395              1  ILE    0.060
    16 HD12         5.435    -4.883   -13.433              1  ILE    0.060
    17 HD13         6.306    -3.305   -13.389              1  ILE    0.060
    18 C            3.509    -2.089   -18.270              1  ILE    0.500
    19 O            3.628    -0.836   -18.157              1  ILE   -0.500
    20 N            2.610    -2.654   -19.082              2  GLU   -0.500
    21 H            2.871    -3.485   -19.594              2  GLU    0.300
    22 CA           1.641    -1.767   -19.691              2  GLU    0.140
    23 HA           2.192    -0.973   -20.195              2  GLU    0.060
    24 CB           0.774    -2.476   -20.699              2  GLU   -0.120
    25 HB2         -0.025    -1.822   -21.048              2  GLU    0.060
    26 HB3          1.380    -2.676   -21.583              2  GLU    0.060
    27 CG           0.201    -3.815   -20.203              2  GLU   -0.220
    28 HG2          0.992    -4.558   -20.104              2  GLU    0.060
    29 HG3         -0.267    -3.695   -19.226              2  GLU    0.060
    30 CD          -0.849    -4.314   -21.219              2  GLU    0.700
    31 OE1         -2.072    -4.118   -20.953              2  GLU   -0.800
    32 OE2         -0.449    -4.843   -22.312              2  GLU   -0.800
    33 C            0.741    -1.107   -18.621              2  GLU    0.500
    34 O            0.634    -1.624   -17.535              2  GLU   -0.500
    35 N            0.250     0.091   -18.869              3  GLN   -0.500
    36 H            0.046     0.332   -19.828              3  GLN    0.300
    37 CA          -0.485     0.790   -17.842              3  GLN    0.140
    38 HA           0.093     0.715   -16.921              3  GLN    0.060
    39 CB          -0.573     2.294   -18.245              3  GLN   -0.120
    40 HB2          0.402     2.665   -18.561              3  GLN    0.060
    41 HB3         -1.207     2.372   -19.128              3  GLN    0.060
    42 CG          -1.155     3.176   -17.171              3  GLN   -0.120
    43 HG2         -1.906     2.637   -16.593              3  GLN    0.060
    44 HG3         -0.325     3.435   -16.513              3  GLN    0.060
    45 CD          -1.756     4.468   -17.708              3  GLN    0.500
    46 OE1         -2.743     4.455   -18.395              3  GLN   -0.500
    47 NE2         -1.126     5.603   -17.408              3  GLN   -0.760
    48 HE21        -0.696     5.714   -16.501              3  GLN    0.380
    49 HE22        -0.958     6.288   -18.131              3  GLN    0.380
    50 C           -1.836     0.067   -17.590              3  GLN    0.500
    51 O           -2.509    -0.172   -18.561              3  GLN   -0.500
    52 N           -2.174    -0.329   -16.340              4  PRO   -0.140
    53 CD          -1.443    -0.268   -15.078              4  PRO   -0.050
    54 HD2         -0.972     0.710   -14.977              4  PRO    0.060
    55 HD3         -0.824    -1.162   -15.003              4  PRO    0.060
    56 CG          -2.528    -0.421   -14.112              4  PRO   -0.120
    57 HG2         -2.987     0.543   -13.892              4  PRO    0.060
    58 HG3         -2.157    -0.840   -13.176              4  PRO    0.060
    59 CB          -3.532    -1.359   -14.728              4  PRO   -0.120
    60 HB2         -4.528    -1.178   -14.324              4  PRO    0.060
    61 HB3         -3.107    -2.360   -14.662              4  PRO    0.060
    62 CA          -3.478    -1.010   -16.183              4  PRO    0.010
    63 HA          -3.508    -2.005   -16.626              4  PRO    0.060
    64 C           -4.741    -0.159   -16.506              4  PRO    0.500
    65 O           -4.732     1.060   -16.478              4  PRO   -0.500
    66 N           -5.835    -0.809   -16.862              5  ARG   -0.500
    67 H           -5.882    -1.807   -16.713              5  ARG    0.300
    68 CA          -7.125    -0.087   -17.230              5  ARG    0.140
    69 HA          -7.012     0.405   -18.196              5  ARG    0.060
    70 CB          -8.252    -1.180   -17.575              5  ARG   -0.120
    71 HB2         -9.241    -0.722   -17.582              5  ARG    0.060
    72 HB3         -8.286    -1.888   -16.747              5  ARG    0.060
    73 CG          -8.021    -1.981   -18.857              5  ARG   -0.050
    74 HG2         -7.764    -1.318   -19.683              5  ARG    0.060
    75 HG3         -7.155    -2.620   -18.683              5  ARG    0.060
    76 CD          -9.153    -2.955   -19.271              5  ARG    0.190
    77 HD2         -9.274    -3.742   -18.527              5  ARG    0.060
    78 HD3         -8.887    -3.448   -20.206              5  ARG    0.060
    79 NE         -10.438    -2.260   -19.462              5  ARG   -0.700
    80 HE         -10.974    -2.078   -18.626              5  ARG    0.440
    81 CZ         -10.960    -1.866   -20.639              5  ARG    0.640
    82 NH1        -10.344    -2.100   -21.725              5  ARG   -0.800
    83 HH11        -9.349    -1.936   -21.787              5  ARG    0.460
    84 HH12       -10.816    -2.590   -22.472              5  ARG    0.460
    85 NH2        -12.083    -1.238   -20.672              5  ARG   -0.800
    86 HH21       -12.610    -1.101   -19.821              5  ARG    0.460
    87 HH22       -12.602    -1.265   -21.538              5  ARG    0.460
    88 C           -7.675     0.902   -16.214              5  ARG    0.500
    89 O           -8.498     1.673   -16.657              5  ARG   -0.500
    90 N           -7.203     0.921   -14.971              6  TRP   -0.500
    91 H           -6.278     0.543   -14.822              6  TRP    0.300
    92 CA          -7.661     1.930   -13.980              6  TRP    0.140
    93 HA          -8.599     2.338   -14.355              6  TRP    0.060
    94 CB          -7.925     1.265   -12.643              6  TRP   -0.120
    95 HB2         -8.954     0.911   -12.586              6  TRP    0.060
    96 HB3         -7.817     2.005   -11.850              6  TRP    0.060
    97 CG          -6.995     0.140   -12.342              6  TRP    0.075
    98 CD1         -7.222    -1.256   -12.375              6  TRP   -0.115
    99 HD1         -7.879    -1.667   -13.127              6  TRP    0.115
   100 NE1         -6.179    -1.957   -11.912              6  TRP   -0.570
   101 HE1         -6.314    -2.902   -11.583              6  TRP    0.420
   102 CE2         -5.227    -1.122   -11.404              6  TRP    0.130
   103 CZ2         -4.022    -1.326   -10.749              6  TRP   -0.115
   104 HZ2         -3.727    -2.325   -10.462              6  TRP    0.115
   105 CH2         -3.288    -0.277   -10.361              6  TRP   -0.115
   106 HH2         -2.584    -0.419    -9.554              6  TRP    0.115
   107 CZ3         -3.694     1.001   -10.654              6  TRP   -0.115
   108 HZ3         -3.067     1.831   -10.363              6  TRP    0.115
   109 CE3         -4.875     1.255   -11.368              6  TRP   -0.115
   110 HE3         -4.934     2.153   -11.965              6  TRP    0.115
   111 CD2         -5.703     0.189   -11.699              6  TRP   -0.055
   112 C           -6.704     3.152   -13.708              6  TRP    0.500
   113 O           -7.097     4.100   -13.091              6  TRP   -0.500
   114 N           -5.459     3.102   -14.114              7  ALA   -0.500
   115 H           -5.033     2.200   -14.273              7  ALA    0.300
   116 CA          -4.567     4.220   -13.775              7  ALA    0.140
   117 HA          -4.696     4.454   -12.718              7  ALA    0.060
   118 CB          -3.114     3.805   -14.040              7  ALA   -0.180
   119 HB1         -2.503     4.674   -14.283              7  ALA    0.060
   120 HB2         -2.683     3.333   -13.157              7  ALA    0.060
   121 HB3         -3.096     3.093   -14.865              7  ALA    0.060
   122 C           -4.841     5.491   -14.589              7  ALA    0.500
   123 O           -5.198     5.449   -15.796              7  ALA   -0.500
   124 N           -4.642     6.689   -13.981              8  SER   -0.500
   125 H           -4.049     6.721   -13.164              8  SER    0.300
   126 CA          -4.938     7.970   -14.650              8  SER    0.140
   127 HA          -5.934     7.906   -15.089              8  SER    0.060
   128 CB          -4.858     9.209   -13.706              8  SER    0.145
   129 HB2         -5.343    10.071   -14.163              8  SER    0.060
   130 HB3         -3.797     9.371   -13.514              8  SER    0.060
   131 OG          -5.482     8.918   -12.468              8  SER   -0.683
   132 HG          -5.928     9.695   -12.167              8  SER    0.418
   133 C           -3.927     8.259   -15.776              8  SER    0.500
   134 O           -2.716     8.185   -15.627              8  SER   -0.500
   135 N           -4.487     8.656   -16.923              9  LYS   -0.500
   136 H           -5.476     8.507   -17.068              9  LYS    0.300
   137 CA          -3.684     8.997   -18.065              9  LYS    0.140
   138 HA          -2.947     8.211   -18.228              9  LYS    0.060
   139 CB          -4.541     8.998   -19.401              9  LYS   -0.120
   140 HB2         -3.891     8.987   -20.276              9  LYS    0.060
   141 HB3         -5.039     8.029   -19.447              9  LYS    0.060
   142 CG          -5.657    10.070   -19.558              9  LYS   -0.120
   143 HG2         -5.247    11.073   -19.441              9  LYS    0.060
   144 HG3         -6.450     9.769   -18.873              9  LYS    0.060
   145 CD          -6.236     9.885   -20.948              9  LYS   -0.120
   146 HD2         -5.546    10.255   -21.706              9  LYS    0.060
   147 HD3         -6.367     8.821   -21.147              9  LYS    0.060
   148 CE          -7.623    10.610   -21.058              9  LYS    0.190
   149 HE2         -7.522    11.671   -20.831              9  LYS    0.060
   150 HE3         -8.014    10.490   -22.068              9  LYS    0.060
   151 NZ          -8.632     9.991   -20.123              9  LYS   -0.300
   152 HZ1         -9.419     9.649   -20.655              9  LYS    0.330
   153 HZ2         -8.948    10.684   -19.460              9  LYS    0.330
   154 HZ3         -8.203     9.223   -19.627              9  LYS    0.330
   155 C           -2.918    10.325   -17.920              9  LYS    0.500
   156 O           -1.922    10.522   -18.620              9  LYS   -0.500
   157 N           -3.221    11.214   -17.006             10  ASP   -0.500
   158 H           -4.203    11.332   -16.799             10  ASP    0.300
   159 CA          -2.420    12.386   -16.750             10  ASP    0.140
   160 HA          -2.337    12.936   -17.687             10  ASP    0.060
   161 CB          -3.058    13.288   -15.715             10  ASP   -0.220
   162 HB2         -3.081    12.800   -14.741             10  ASP    0.060
   163 HB3         -4.102    13.442   -15.988             10  ASP    0.060
   164 CG          -2.421    14.666   -15.576             10  ASP    0.700
   165 OD1         -1.283    14.768   -16.059             10  ASP   -0.800
   166 OD2         -2.958    15.556   -14.977             10  ASP   -0.800
   167 C           -0.984    11.862   -16.379             10  ASP    0.500
   168 O           -0.888    11.317   -15.285             10  ASP   -0.500
   169 N            0.098    12.260   -17.105             11  PRO   -0.140
   170 CD           0.244    12.939   -18.387             11  PRO   -0.050
   171 HD2         -0.563    12.634   -19.054             11  PRO    0.060
   172 HD3          0.216    14.021   -18.259             11  PRO    0.060
   173 CG           1.541    12.480   -18.899             11  PRO   -0.120
   174 HG2          1.454    11.483   -19.331             11  PRO    0.060
   175 HG3          1.984    13.253   -19.527             11  PRO    0.060
   176 CB           2.288    12.438   -17.673             11  PRO   -0.120
   177 HB2          3.199    11.853   -17.796             11  PRO    0.060
   178 HB3          2.576    13.442   -17.362             11  PRO    0.060
   179 CA           1.386    11.806   -16.657             11  PRO    0.010
   180 HA           1.444    10.718   -16.680             11  PRO    0.060
   181 C            1.755    12.343   -15.280             11  PRO    0.500
   182 O            2.478    11.738   -14.474             11  PRO   -0.500
   183 N            1.168    13.467   -14.927             12  ALA   -0.500
   184 H            0.288    13.698   -15.365             12  ALA    0.300
   185 CA           1.406    14.040   -13.605             12  ALA    0.140
   186 HA           2.479    14.206   -13.513             12  ALA    0.060
   187 CB           0.699    15.378   -13.523             12  ALA   -0.180
   188 HB1          1.398    16.194   -13.703             12  ALA    0.060
   189 HB2         -0.088    15.444   -14.274             12  ALA    0.060
   190 HB3          0.248    15.525   -12.542             12  ALA    0.060
   191 C            0.966    13.122   -12.389             12  ALA    0.500
   192 O            1.517    13.254   -11.294             12  ALA   -0.500
   193 N            0.117    12.161   -12.567             13  ALA   -0.500
   194 H           -0.147    11.897   -13.505             13  ALA    0.300
   195 CA          -0.267    11.280   -11.467             13  ALA    0.140
   196 HA          -0.477    11.886   -10.586             13  ALA    0.060
   197 CB          -1.528    10.474   -11.872             13  ALA   -0.180
   198 HB1         -1.287     9.418   -11.992             13  ALA    0.060
   199 HB2         -1.926    10.834   -12.821             13  ALA    0.060
   200 HB3         -2.310    10.563   -11.118             13  ALA    0.060
   201 C            0.918    10.337   -11.153             13  ALA    0.500
   202 O            0.983     9.777   -10.031             13  ALA   -0.500
   203 N            1.802    10.135   -12.138             14  GLY   -0.500
   204 H            1.572    10.468   -13.063             14  GLY    0.300
   205 CA           2.954     9.287   -12.017             14  GLY    0.080
   206 HA2          2.937     8.533   -12.804             14  GLY    0.060
   207 HA3          2.872     8.745   -11.075             14  GLY    0.060
   208 C            4.321    10.020   -12.028             14  GLY    0.500
   209 O            5.340     9.315   -12.031             14  GLY   -0.500
   210 N            4.332    11.368   -11.995             15  LYS   -0.500
   211 H            3.457    11.861   -12.100             15  LYS    0.300
   212 CA           5.562    12.171   -11.987             15  LYS    0.140
   213 HA           6.402    11.485   -12.096             15  LYS    0.060
   214 CB           5.555    13.144   -13.186             15  LYS   -0.120
   215 HB2          4.593    13.650   -13.265             15  LYS    0.060
   216 HB3          6.274    13.937   -12.980             15  LYS    0.060
   217 CG           5.926    12.512   -14.489             15  LYS   -0.120
   218 HG2          6.939    12.112   -14.447             15  LYS    0.060
   219 HG3          5.291    11.636   -14.623             15  LYS    0.060
   220 CD           5.744    13.428   -15.749             15  LYS   -0.120
   221 HD2          6.403    14.295   -15.692             15  LYS    0.060
   222 HD3          4.693    13.718   -15.748             15  LYS    0.060
   223 CE           6.003    12.636   -17.030             15  LYS    0.190
   224 HE2          6.893    12.016   -16.926             15  LYS    0.060
   225 HE3          5.113    12.028   -17.194             15  LYS    0.060
   226 NZ           6.189    13.609   -18.223             15  LYS   -0.300
   227 HZ1          6.225    14.559   -17.881             15  LYS    0.330
   228 HZ2          5.413    13.511   -18.861             15  LYS    0.330
   229 HZ3          7.050    13.391   -18.704             15  LYS    0.330
   230 C            5.734    12.907   -10.628             15  LYS    0.500
   231 O            4.780    13.256    -9.959             15  LYS   -0.500
   232 N            6.970    13.086   -10.193             16  ALA   -0.500
   233 H            7.722    12.608   -10.668             16  ALA    0.300
   234 CA           7.280    13.694    -8.880             16  ALA    0.140
   235 HA           6.540    13.344    -8.160             16  ALA    0.060
   236 CB           8.637    13.337    -8.369             16  ALA   -0.180
   237 HB1          8.581    12.485    -7.692             16  ALA    0.060
   238 HB2          9.300    13.067    -9.191             16  ALA    0.060
   239 HB3          9.017    14.223    -7.859             16  ALA    0.060
   240 C            7.101    15.219    -9.035             16  ALA    0.500
   241 O            7.544    15.825   -10.065             16  ALA   -0.500
   242 N            6.559    15.885    -7.996             17  SER   -0.500
   243 H            5.974    15.357    -7.364             17  SER    0.300
   244 CA           6.402    17.344    -7.939             17  SER    0.140
   245 HA           6.920    17.763    -8.802             17  SER    0.060
   246 CB           4.881    17.698    -8.038             17  SER    0.145
   247 HB2          4.728    18.772    -7.933             17  SER    0.060
   248 HB3          4.567    17.392    -9.036             17  SER    0.060
   249 OG           4.089    17.015    -7.088             17  SER   -0.683
   250 HG           3.620    16.324    -7.530             17  SER    0.418
   251 C            6.956    18.049    -6.676             17  SER    0.500
   252 O            7.036    19.240    -6.539             17  SER   -0.500
   253 N            7.447    17.251    -5.757             18  THR   -0.500
   254 H            7.651    16.302    -6.038             18  THR    0.300
   255 CA           8.195    17.735    -4.577             18  THR    0.140
   256 HA           8.298    18.820    -4.595             18  THR    0.060
   257 CB           7.442    17.356    -3.242             18  THR    0.205
   258 HB           7.810    17.952    -2.407             18  THR    0.060
   259 CG2          5.854    17.545    -3.423             18  THR   -0.180
   260 HG21         5.630    18.515    -3.866             18  THR    0.060
   261 HG22         5.448    16.777    -4.081             18  THR    0.060
   262 HG23         5.338    17.479    -2.465             18  THR    0.060
   263 OG1          7.634    16.005    -2.973             18  THR   -0.683
   264 HG1          8.133    15.927    -2.175             18  THR    0.418
   265 C            9.566    17.070    -4.493             18  THR    0.500
   266 O            9.735    15.982    -5.108             18  THR   -0.500
   267 N           10.491    17.648    -3.696             19  PRO   -0.140
   268 CD          10.548    18.876    -2.923             19  PRO   -0.050
   269 HD2          9.922    19.633    -3.395             19  PRO    0.060
   270 HD3         10.412    18.669    -1.862             19  PRO    0.060
   271 CG          12.018    19.238    -3.052             19  PRO   -0.120
   272 HG2         12.232    19.628    -4.047             19  PRO    0.060
   273 HG3         12.328    19.966    -2.302             19  PRO    0.060
   274 CB          12.673    17.918    -2.854             19  PRO   -0.120
   275 HB2         13.691    17.931    -3.243             19  PRO    0.060
   276 HB3         12.699    17.636    -1.801             19  PRO    0.060
   277 CA          11.795    16.969    -3.670             19  PRO    0.010
   278 HA          12.175    16.868    -4.687             19  PRO    0.060
   279 C           11.780    15.548    -2.965             19  PRO    0.500
   280 O           12.458    14.658    -3.435             19  PRO   -0.500
   281 N           11.027    15.395    -1.865             20  ASP   -0.500
   282 H           10.757    16.216    -1.342             20  ASP    0.300
   283 CA          10.959    14.099    -1.174             20  ASP    0.140
   284 HA          11.974    13.821    -0.890             20  ASP    0.060
   285 CB          10.081    14.199     0.112             20  ASP   -0.220
   286 HB2         10.203    13.310     0.731             20  ASP    0.060
   287 HB3          9.030    14.222    -0.177             20  ASP    0.060
   288 CG          10.363    15.454     0.957             20  ASP    0.700
   289 OD1         11.192    15.334     1.860             20  ASP   -0.800
   290 OD2          9.757    16.496     0.795             20  ASP   -0.800
   291 C           10.418    13.000    -2.137             20  ASP    0.500
   292 O           10.932    11.907    -2.184             20  ASP   -0.500
   293 N            9.476    13.373    -2.985             21  GLU   -0.500
   294 H            9.108    14.313    -2.958             21  GLU    0.300
   295 CA           8.918    12.432    -3.926             21  GLU    0.140
   296 HA           8.459    11.601    -3.391             21  GLU    0.060
   297 CB           7.818    13.012    -4.737             21  GLU   -0.120
   298 HB2          7.789    12.556    -5.726             21  GLU    0.060
   299 HB3          8.078    14.052    -4.933             21  GLU    0.060
   300 CG           6.432    13.008    -4.102             21  GLU   -0.220
   301 HG2          6.496    13.236    -3.038             21  GLU    0.060
   302 HG3          6.081    11.984    -4.227             21  GLU    0.060
   303 CD           5.407    13.920    -4.753             21  GLU    0.700
   304 OE1          5.776    14.768    -5.624             21  GLU   -0.800
   305 OE2          4.193    13.813    -4.414             21  GLU   -0.800
   306 C            9.974    11.867    -4.901             21  GLU    0.500
   307 O            9.988    10.648    -5.266             21  GLU   -0.500
   308 N           10.848    12.760    -5.325             22  LYS   -0.500
   309 H           10.561    13.728    -5.319             22  LYS    0.300
   310 CA          11.902    12.399    -6.269             22  LYS    0.140
   311 HA          11.411    11.819    -7.050             22  LYS    0.060
   312 CB          12.430    13.680    -6.920             22  LYS   -0.120
   313 HB2         11.627    14.310    -7.303             22  LYS    0.060
   314 HB3         12.979    14.173    -6.118             22  LYS    0.060
   315 CG          13.466    13.394    -7.970             22  LYS   -0.120
   316 HG2         14.176    12.646    -7.616             22  LYS    0.060
   317 HG3         12.970    12.937    -8.826             22  LYS    0.060
   318 CD          14.179    14.615    -8.439             22  LYS   -0.120
   319 HD2         14.593    15.168    -7.596             22  LYS    0.060
   320 HD3         13.477    15.283    -8.938             22  LYS    0.060
   321 CE          15.292    14.203    -9.420             22  LYS    0.190
   322 HE2         15.841    13.342    -9.038             22  LYS    0.060
   323 HE3         14.758    13.863   -10.307             22  LYS    0.060
   324 NZ          16.254    15.243    -9.869             22  LYS   -0.300
   325 HZ1         15.822    16.154    -9.801             22  LYS    0.330
   326 HZ2         17.076    15.215    -9.283             22  LYS    0.330
   327 HZ3         16.518    15.066   -10.828             22  LYS    0.330
   328 C           13.019    11.473    -5.706             22  LYS    0.500
   329 O           13.487    10.537    -6.292             22  LYS   -0.500
   330 N           13.239    11.746    -4.418             23  ILE   -0.500
   331 H           13.116    12.701    -4.114             23  ILE    0.300
   332 CA          14.163    10.929    -3.655             23  ILE    0.140
   333 HA          15.123    10.868    -4.168             23  ILE    0.060
   334 CB          14.420    11.594    -2.238             23  ILE   -0.060
   335 HB          13.465    11.943    -1.844             23  ILE    0.060
   336 CG2         15.001    10.586    -1.260             23  ILE   -0.180
   337 HG21        14.577     9.596    -1.429             23  ILE    0.060
   338 HG22        14.776    10.872    -0.233             23  ILE    0.060
   339 HG23        16.084    10.516    -1.365             23  ILE    0.060
   340 CG1         15.353    12.802    -2.384             23  ILE   -0.120
   341 HG12        15.217    13.278    -3.355             23  ILE    0.060
   342 HG13        16.371    12.414    -2.422             23  ILE    0.060
   343 CD1         15.312    13.907    -1.194             23  ILE   -0.180
   344 HD11        16.007    14.721    -1.399             23  ILE    0.060
   345 HD12        15.598    13.459    -0.243             23  ILE    0.060
   346 HD13        14.286    14.271    -1.147             23  ILE    0.060
   347 C           13.546     9.530    -3.495             23  ILE    0.500
   348 O           14.184     8.545    -3.549             23  ILE   -0.500
   349 N           12.260     9.430    -3.257             24  VAL   -0.500
   350 H           11.757    10.245    -2.937             24  VAL    0.300
   351 CA          11.634     8.172    -3.085             24  VAL    0.140
   352 HA          12.290     7.565    -2.462             24  VAL    0.060
   353 CB          10.254     8.249    -2.412             24  VAL   -0.060
   354 HB           9.807     9.202    -2.694             24  VAL    0.060
   355 CG1          9.287     7.120    -2.891             24  VAL   -0.180
   356 HG11         9.682     6.138    -2.631             24  VAL    0.060
   357 HG12         9.162     7.153    -3.973             24  VAL    0.060
   358 HG13         8.356     7.325    -2.363             24  VAL    0.060
   359 CG2         10.388     8.242    -0.954             24  VAL   -0.180
   360 HG21        10.313     7.227    -0.565             24  VAL    0.060
   361 HG22        11.356     8.644    -0.653             24  VAL    0.060
   362 HG23         9.609     8.844    -0.486             24  VAL    0.060
   363 C           11.570     7.517    -4.449             24  VAL    0.500
   364 O           11.851     6.298    -4.542             24  VAL   -0.500
   365 N           11.312     8.238    -5.558             25  LEU   -0.500
   366 H           10.847     9.131    -5.478             25  LEU    0.300
   367 CA          11.351     7.601    -6.851             25  LEU    0.140
   368 HA          10.673     6.750    -6.792             25  LEU    0.060
   369 CB          10.844     8.516    -7.939             25  LEU   -0.120
   370 HB2         10.930     9.560    -7.637             25  LEU    0.060
   371 HB3         11.492     8.411    -8.809             25  LEU    0.060
   372 CG           9.415     8.190    -8.357             25  LEU   -0.060
   373 HG           8.824     8.015    -7.458             25  LEU    0.060
   374 CD1          8.841     9.337    -9.061             25  LEU   -0.180
   375 HD11         9.096     9.306   -10.120             25  LEU    0.060
   376 HD12         9.227    10.272    -8.654             25  LEU    0.060
   377 HD13         7.755     9.350    -8.972             25  LEU    0.060
   378 CD2          9.344     6.938    -9.250             25  LEU   -0.180
   379 HD21         9.106     7.211   -10.278             25  LEU    0.060
   380 HD22         8.568     6.258    -8.898             25  LEU    0.060
   381 HD23        10.293     6.403    -9.251             25  LEU    0.060
   382 C           12.718     7.032    -7.186             25  LEU    0.500
   383 O           12.862     5.895    -7.689             25  LEU   -0.500
   384 N           13.768     7.783    -6.863             26  GLU   -0.500
   385 H           13.624     8.601    -6.289             26  GLU    0.300
   386 CA          15.109     7.334    -7.047             26  GLU    0.140
   387 HA          15.238     7.070    -8.097             26  GLU    0.060
   388 CB          16.101     8.477    -6.750             26  GLU   -0.120
   389 HB2         15.838     8.983    -5.821             26  GLU    0.060
   390 HB3         17.074     8.028    -6.552             26  GLU    0.060
   391 CG          16.278     9.491    -7.888             26  GLU   -0.220
   392 HG2         16.551     8.986    -8.814             26  GLU    0.060
   393 HG3         15.323    10.011    -7.964             26  GLU    0.060
   394 CD          17.335    10.521    -7.544             26  GLU    0.700
   395 OE1         17.137    11.414    -6.721             26  GLU   -0.800
   396 OE2         18.364    10.489    -8.266             26  GLU   -0.800
   397 C           15.419     6.080    -6.190             26  GLU    0.500
   398 O           16.091     5.179    -6.616             26  GLU   -0.500
   399 N           14.875     5.966    -4.969             27  PHE   -0.500
   400 H           14.290     6.709    -4.615             27  PHE    0.300
   401 CA          15.004     4.768    -4.177             27  PHE    0.140
   402 HA          16.058     4.491    -4.152             27  PHE    0.060
   403 CB          14.537     5.107    -2.764             27  PHE   -0.005
   404 HB2         15.241     5.777    -2.270             27  PHE    0.060
   405 HB3         13.593     5.650    -2.820             27  PHE    0.060
   406 CG          14.309     3.848    -1.903             27  PHE   -0.115
   407 CD1         15.299     2.837    -1.720             27  PHE   -0.115
   408 HD1         16.120     2.777    -2.419             27  PHE    0.115
   409 CE1         15.049     1.763    -0.896             27  PHE   -0.115
   410 HE1         15.760     0.952    -0.840             27  PHE    0.115
   411 CZ          13.838     1.658    -0.247             27  PHE   -0.115
   412 HZ          13.493     0.667     0.010             27  PHE    0.115
   413 CE2         12.878     2.649    -0.384             27  PHE   -0.115
   414 HE2         12.106     2.737     0.366             27  PHE    0.115
   415 CD2         13.121     3.709    -1.216             27  PHE   -0.115
   416 HD2         12.373     4.483    -1.306             27  PHE    0.115
   417 C           14.207     3.579    -4.811             27  PHE    0.500
   418 O           14.695     2.439    -4.930             27  PHE   -0.500
   419 N           13.045     3.870    -5.350             28  MET   -0.500
   420 H           12.557     4.680    -4.996             28  MET    0.300
   421 CA          12.210     2.857    -6.005             28  MET    0.140
   422 HA          11.988     2.043    -5.315             28  MET    0.060
   423 CB          10.803     3.449    -6.319             28  MET   -0.120
   424 HB2         10.273     2.822    -7.036             28  MET    0.060
   425 HB3         10.941     4.404    -6.826             28  MET    0.060
   426 CG           9.932     3.692    -5.058             28  MET    0.098
   427 HG2          9.082     4.332    -5.295             28  MET    0.060
   428 HG3         10.519     4.219    -4.306             28  MET    0.060
   429 SD           9.329     2.123    -4.323             28  MET   -0.435
   430 CE          10.449     1.806    -2.994             28  MET    0.037
   431 HE1         10.423     0.746    -2.742             28  MET    0.060
   432 HE2         11.464     2.048    -3.308             28  MET    0.060
   433 HE3         10.191     2.395    -2.114             28  MET    0.060
   434 C           12.795     2.275    -7.295             28  MET    0.500
   435 O           12.708     1.070    -7.584             28  MET   -0.500
   436 N           13.504     3.092    -8.051             29  ASP   -0.500
   437 H           13.727     4.017    -7.712             29  ASP    0.300
   438 CA          14.236     2.589    -9.156             29  ASP    0.140
   439 HA          13.592     1.894    -9.695             29  ASP    0.060
   440 CB          14.626     3.682   -10.052             29  ASP   -0.220
   441 HB2         14.415     4.648    -9.594             29  ASP    0.060
   442 HB3         15.706     3.650   -10.199             29  ASP    0.060
   443 CG          13.988     3.620   -11.391             29  ASP    0.700
   444 OD1         14.351     2.671   -12.102             29  ASP   -0.800
   445 OD2         13.203     4.518   -11.777             29  ASP   -0.800
   446 C           15.518     1.849    -8.786             29  ASP    0.500
   447 O           15.861     0.842    -9.496             29  ASP   -0.500
   448 N           16.242     2.177    -7.724             30  ALA   -0.500
   449 H           16.161     3.132    -7.405             30  ALA    0.300
   450 CA          17.472     1.499    -7.337             30  ALA    0.140
   451 HA          18.081     1.385    -8.234             30  ALA    0.060
   452 CB          18.277     2.284    -6.284             30  ALA   -0.180
   453 HB1         18.281     3.349    -6.517             30  ALA    0.060
   454 HB2         17.840     2.161    -5.293             30  ALA    0.060
   455 HB3         19.311     1.940    -6.245             30  ALA    0.060
   456 C           17.194     0.104    -6.785             30  ALA    0.500
   457 O           18.134    -0.687    -6.618             30  ALA   -0.500
   458 N           15.916    -0.201    -6.590             31  LEU   -0.500
   459 H           15.266     0.565    -6.489             31  LEU    0.300
   460 CA          15.472    -1.513    -6.075             31  LEU    0.140
   461 HA          15.875    -1.576    -5.064             31  LEU    0.060
   462 CB          13.927    -1.672    -5.960             31  LEU   -0.120
   463 HB2         13.445    -1.441    -6.910             31  LEU    0.060
   464 HB3         13.731    -2.735    -5.823             31  LEU    0.060
   465 CG          13.225    -0.936    -4.799             31  LEU   -0.060
   466 HG          13.337     0.139    -4.939             31  LEU    0.060
   467 CD1         11.676    -1.316    -4.881             31  LEU   -0.180
   468 HD11        11.549    -2.334    -5.248             31  LEU    0.060
   469 HD12        11.151    -0.648    -5.564             31  LEU    0.060
   470 HD13        11.304    -1.207    -3.862             31  LEU    0.060
   471 CD2         13.803    -1.332    -3.397             31  LEU   -0.180
   472 HD21        14.543    -2.126    -3.496             31  LEU    0.060
   473 HD22        13.010    -1.695    -2.743             31  LEU    0.060
   474 HD23        14.280    -0.480    -2.914             31  LEU    0.060
   475 C           16.039    -2.764    -6.831             31  LEU    0.500
   476 O           16.387    -3.733    -6.260             31  LEU   -0.500
   477 N           16.135    -2.561    -8.176             32  THR   -0.500
   478 H           15.540    -1.849    -8.574             32  THR    0.300
   479 CA          16.551    -3.618    -9.071             32  THR    0.140
   480 HA          15.946    -4.497    -8.849             32  THR    0.060
   481 CB          16.315    -3.203   -10.533             32  THR    0.205
   482 HB          16.998    -3.760   -11.175             32  THR    0.060
   483 CG2         14.885    -3.460   -10.983             32  THR   -0.180
   484 HG21        14.725    -3.077   -11.991             32  THR    0.060
   485 HG22        14.178    -2.960   -10.321             32  THR    0.060
   486 HG23        14.747    -4.541   -10.978             32  THR    0.060
   487 OG1         16.613    -1.786   -10.666             32  THR   -0.683
   488 HG1         16.013    -1.411   -11.293             32  THR    0.418
   489 C           18.024    -4.008    -8.881             32  THR    0.500
   490 O           18.433    -5.034    -9.401             32  THR   -0.500
   491 N           18.809    -3.235    -8.113             33  SER   -0.500
   492 H           18.410    -2.437    -7.640             33  SER    0.300
   493 CA          20.166    -3.636    -7.757             33  SER    0.140
   494 HA          20.671    -3.949    -8.671             33  SER    0.060
   495 CB          20.936    -2.493    -7.130             33  SER    0.145
   496 HB2         21.977    -2.772    -6.969             33  SER    0.060
   497 HB3         20.804    -1.647    -7.805             33  SER    0.060
   498 OG          20.326    -2.141    -5.858             33  SER   -0.683
   499 HG          21.013    -2.011    -5.222             33  SER    0.418
   500 C           20.184    -4.805    -6.794             33  SER    0.500
   501 O           21.180    -5.510    -6.708             33  SER   -0.500
   502 N           19.077    -5.019    -6.138             34  ASN   -0.500
   503 H           18.496    -4.200    -6.028             34  ASN    0.300
   504 CA          18.889    -6.069    -5.106             34  ASN    0.140
   505 HA          17.998    -5.810    -4.534             34  ASN    0.060
   506 CB          18.706    -7.501    -5.705             34  ASN   -0.120
   507 HB2         19.576    -7.787    -6.296             34  ASN    0.060
   508 HB3         18.630    -8.213    -4.883             34  ASN    0.060
   509 CG          17.439    -7.671    -6.546             34  ASN    0.500
   510 OD1         16.362    -7.944    -6.067             34  ASN   -0.500
   511 ND2         17.590    -7.559    -7.833             34  ASN   -0.760
   512 HD21        18.511    -7.407    -8.219             34  ASN    0.380
   513 HD22        16.838    -7.843    -8.445             34  ASN    0.380
   514 C           20.096    -6.092    -4.116             34  ASN    0.500
   515 O           20.410    -7.142    -3.534             34  ASN   -0.500
   516 N           20.701    -4.943    -3.826             35  ASP   -0.500
   517 H           20.155    -4.097    -3.902             35  ASP    0.300
   518 CA          21.844    -4.899    -2.950             35  ASP    0.140
   519 HA          21.989    -5.888    -2.516             35  ASP    0.060
   520 CB          23.127    -4.468    -3.671             35  ASP   -0.220
   521 HB2         22.916    -3.677    -4.391             35  ASP    0.060
   522 HB3         23.518    -5.309    -4.244             35  ASP    0.060
   523 CG          24.212    -4.005    -2.718             35  ASP    0.700
   524 OD1         24.355    -4.637    -1.631             35  ASP   -0.800
   525 OD2         24.868    -3.024    -3.047             35  ASP   -0.800
   526 C           21.597    -3.917    -1.804             35  ASP    0.500
   527 O           21.615    -2.728    -2.035             35  ASP   -0.500
   528 N           21.259    -4.403    -0.599             36  ALA   -0.500
   529 H           21.605    -5.324    -0.369             36  ALA    0.300
   530 CA          20.946    -3.543     0.528             36  ALA    0.140
   531 HA          19.970    -3.085     0.366             36  ALA    0.060
   532 CB          20.883    -4.548     1.720             36  ALA   -0.180
   533 HB1         21.727    -4.399     2.393             36  ALA    0.060
   534 HB2         19.970    -4.404     2.297             36  ALA    0.060
   535 HB3         20.905    -5.579     1.367             36  ALA    0.060
   536 C           21.943    -2.461     0.906             36  ALA    0.500
   537 O           21.525    -1.431     1.464             36  ALA   -0.500
   538 N           23.234    -2.604     0.581             37  ALA   -0.500
   539 H           23.508    -3.317    -0.080             37  ALA    0.300
   540 CA          24.176    -1.564     0.894             37  ALA    0.140
   541 HA          24.070    -1.313     1.949             37  ALA    0.060
   542 CB          25.584    -2.141     0.635             37  ALA   -0.180
   543 HB1         25.719    -2.370    -0.422             37  ALA    0.060
   544 HB2         26.354    -1.426     0.924             37  ALA    0.060
   545 HB3         25.741    -3.057     1.204             37  ALA    0.060
   546 C           24.023    -0.322     0.102             37  ALA    0.500
   547 O           24.371     0.753     0.634             37  ALA   -0.500
   548 N           23.435    -0.428    -1.094             38  LYS   -0.500
   549 H           23.145    -1.336    -1.428             38  LYS    0.300
   550 CA          23.112     0.769    -1.934             38  LYS    0.140
   551 HA          23.945     1.472    -1.954             38  LYS    0.060
   552 CB          22.802     0.307    -3.379             38  LYS   -0.120
   553 HB2         22.046    -0.478    -3.379             38  LYS    0.060
   554 HB3         23.764    -0.005    -3.786             38  LYS    0.060
   555 CG          22.339     1.517    -4.239             38  LYS   -0.120
   556 HG2         21.370     1.882    -3.898             38  LYS    0.060
   557 HG3         23.025     2.341    -4.040             38  LYS    0.060
   558 CD          22.327     1.282    -5.781             38  LYS   -0.120
   559 HD2         23.258     0.820    -6.108             38  LYS    0.060
   560 HD3         21.441     0.681    -5.987             38  LYS    0.060
   561 CE          22.086     2.641    -6.531             38  LYS    0.190
   562 HE2         21.206     3.148    -6.134             38  LYS    0.060
   563 HE3         21.869     2.436    -7.579             38  LYS    0.060
   564 NZ          23.243     3.553    -6.479             38  LYS   -0.300
   565 HZ1         23.545     3.769    -7.418             38  LYS    0.330
   566 HZ2         22.981     4.405    -6.004             38  LYS    0.330
   567 HZ3         23.999     3.108    -5.978             38  LYS    0.330
   568 C           21.875     1.456    -1.331             38  LYS    0.500
   569 O           21.779     2.665    -1.209             38  LYS   -0.500
   570 N           20.933     0.602    -1.029             39  LEU   -0.500
   571 H           21.035    -0.345    -1.364             39  LEU    0.300
   572 CA          19.595     0.991    -0.602             39  LEU    0.140
   573 HA          19.222     1.743    -1.297             39  LEU    0.060
   574 CB          18.716    -0.282    -0.697             39  LEU   -0.120
   575 HB2         17.740    -0.109    -0.244             39  LEU    0.060
   576 HB3         19.175    -1.041    -0.063             39  LEU    0.060
   577 CG          18.563    -0.890    -2.099             39  LEU   -0.060
   578 HG          19.565    -1.166    -2.429             39  LEU    0.060
   579 CD1         17.731    -2.161    -2.108             39  LEU   -0.180
   580 HD11        17.700    -2.593    -3.108             39  LEU    0.060
   581 HD12        18.160    -2.906    -1.438             39  LEU    0.060
   582 HD13        16.708    -1.964    -1.789             39  LEU    0.060
   583 CD2         18.009     0.038    -3.135             39  LEU   -0.180
   584 HD21        17.110    -0.380    -3.587             39  LEU    0.060
   585 HD22        17.744     0.997    -2.690             39  LEU    0.060
   586 HD23        18.736     0.219    -3.927             39  LEU    0.060
   587 C           19.514     1.557     0.782             39  LEU    0.500
   588 O           18.676     2.383     1.056             39  LEU   -0.500
   589 N           20.380     1.120     1.736             40  ILE   -0.500
   590 H           20.876     0.255     1.572             40  ILE    0.300
   591 CA          20.273     1.574     3.112             40  ILE    0.140
   592 HA          19.227     1.486     3.405             40  ILE    0.060
   593 CB          21.130     0.666     4.037             40  ILE   -0.060
   594 HB          20.963    -0.362     3.716             40  ILE    0.060
   595 CG2         22.670     0.963     3.872             40  ILE   -0.180
   596 HG21        23.003     1.695     4.608             40  ILE    0.060
   597 HG22        22.881     1.368     2.882             40  ILE    0.060
   598 HG23        23.260     0.056     4.002             40  ILE    0.060
   599 CG1         20.778     0.735     5.510             40  ILE   -0.120
   600 HG12        20.911     1.748     5.890             40  ILE    0.060
   601 HG13        21.475     0.050     5.992             40  ILE    0.060
   602 CD1         19.382     0.203     5.865             40  ILE   -0.180
   603 HD11        19.237    -0.799     5.461             40  ILE    0.060
   604 HD12        18.608     0.846     5.447             40  ILE    0.060
   605 HD13        19.242     0.158     6.945             40  ILE    0.060
   606 C           20.670     3.065     3.255             40  ILE    0.500
   607 O           20.170     3.825     4.129             40  ILE   -0.500
   608 N           21.547     3.553     2.364             41  LYS   -0.500
   609 H           22.149     2.881     1.910             41  LYS    0.300
   610 CA          22.021     4.966     2.348             41  LYS    0.140
   611 HA          22.566     5.135     3.277             41  LYS    0.060
   612 CB          22.956     5.239     1.181             41  LYS   -0.120
   613 HB2         22.526     4.874     0.249             41  LYS    0.060
   614 HB3         23.141     6.313     1.155             41  LYS    0.060
   615 CG          24.347     4.617     1.420             41  LYS   -0.120
   616 HG2         24.256     3.586     1.761             41  LYS    0.060
   617 HG3         24.791     5.139     2.268             41  LYS    0.060
   618 CD          25.366     4.722     0.224             41  LYS   -0.120
   619 HD2         24.924     4.336    -0.695             41  LYS    0.060
   620 HD3         25.616     5.767     0.040             41  LYS    0.060
   621 CE          26.613     3.953     0.579             41  LYS    0.190
   622 HE2         26.358     2.975     0.986             41  LYS    0.060
   623 HE3         27.127     4.479     1.384             41  LYS    0.060
   624 NZ          27.598     3.786    -0.543             41  LYS   -0.300
   625 HZ1         27.243     4.240    -1.372             41  LYS    0.330
   626 HZ2         28.481     4.202    -0.282             41  LYS    0.330
   627 HZ3         27.732     2.802    -0.729             41  LYS    0.330
   628 C           20.818     5.960     2.329             41  LYS    0.500
   629 O           20.985     7.095     2.800             41  LYS   -0.500
   630 N           19.638     5.560     1.786             42  TYR   -0.500
   631 H           19.477     4.577     1.621             42  TYR    0.300
   632 CA          18.490     6.465     1.727             42  TYR    0.140
   633 HA          18.852     7.425     1.359             42  TYR    0.060
   634 CB          17.390     5.948     0.771             42  TYR   -0.005
   635 HB2         16.429     6.404     1.009             42  TYR    0.060
   636 HB3         17.327     4.878     0.968             42  TYR    0.060
   637 CG          17.681     6.123    -0.720             42  TYR   -0.115
   638 CD1         18.237     5.124    -1.464             42  TYR   -0.115
   639 HD1         18.177     4.120    -1.070             42  TYR    0.115
   640 CE1         18.482     5.251    -2.840             42  TYR   -0.115
   641 HE1         19.092     4.517    -3.346             42  TYR    0.115
   642 CZ          18.181     6.471    -3.478             42  TYR    0.150
   643 OH          18.307     6.723    -4.781             42  TYR   -0.585
   644 HH          17.488     6.946    -5.195             42  TYR    0.435
   645 CE2         17.597     7.518    -2.679             42  TYR   -0.115
   646 HE2         17.594     8.523    -3.074             42  TYR    0.115
   647 CD2         17.383     7.352    -1.356             42  TYR   -0.115
   648 HD2         17.014     8.179    -0.768             42  TYR    0.115
   649 C           17.804     6.720     3.106             42  TYR    0.500
   650 O           17.029     7.614     3.228             42  TYR   -0.500
   651 N           18.099     5.890     4.064             43  PHE   -0.500
   652 H           19.039     5.521     4.088             43  PHE    0.300
   653 CA          17.356     5.905     5.350             43  PHE    0.140
   654 HA          16.349     6.260     5.132             43  PHE    0.060
   655 CB          17.260     4.441     5.863             43  PHE   -0.005
   656 HB2         18.244     3.972     5.874             43  PHE    0.060
   657 HB3         16.906     4.441     6.894             43  PHE    0.060
   658 CG          16.299     3.592     5.030             43  PHE   -0.115
   659 CD1         16.756     2.857     3.895             43  PHE   -0.115
   660 HD1         17.790     2.546     3.877             43  PHE    0.115
   661 CE1         15.846     2.158     3.117             43  PHE   -0.115
   662 HE1         16.219     1.314     2.556             43  PHE    0.115
   663 CZ          14.510     2.171     3.439             43  PHE   -0.115
   664 HZ          13.906     1.332     3.125             43  PHE    0.115
   665 CE2         14.095     2.829     4.578             43  PHE   -0.115
   666 HE2         13.041     2.886     4.806             43  PHE    0.115
   667 CD2         15.005     3.514     5.374             43  PHE   -0.115
   668 HD2         14.628     4.198     6.120             43  PHE    0.115
   669 C           17.965     6.888     6.430             43  PHE    0.500
   670 O           19.129     7.161     6.446             43  PHE   -0.500
   671 N           17.107     7.338     7.366             44  ALA   -0.500
   672 H           16.178     6.947     7.424             44  ALA    0.300
   673 CA          17.590     8.124     8.475             44  ALA    0.140
   674 HA          18.449     8.716     8.158             44  ALA    0.060
   675 CB          16.435     9.037     8.939             44  ALA   -0.180
   676 HB1         16.635     9.439     9.932             44  ALA    0.060
   677 HB2         15.499     8.480     8.988             44  ALA    0.060
   678 HB3         16.298     9.874     8.254             44  ALA    0.060
   679 C           18.026     7.115     9.586             44  ALA    0.500
   680 O           17.844     5.917     9.451             44  ALA   -0.500
   681 N           18.633     7.582    10.683             45  GLU   -0.500
   682 H           18.442     8.531    10.969             45  GLU    0.300
   683 CA          19.166     6.686    11.670             45  GLU    0.140
   684 HA          19.693     5.899    11.130             45  GLU    0.060
   685 CB          20.170     7.313    12.732             45  GLU   -0.120
   686 HB2         19.640     7.972    13.419             45  GLU    0.060
   687 HB3         20.889     7.876    12.137             45  GLU    0.060
   688 CG          20.956     6.253    13.500             45  GLU   -0.220
   689 HG2         21.094     5.360    12.891             45  GLU    0.060
   690 HG3         20.384     5.944    14.375             45  GLU    0.060
   691 CD          22.345     6.773    13.987             45  GLU    0.700
   692 OE1         23.245     5.923    14.068             45  GLU   -0.800
   693 OE2         22.503     8.006    14.222             45  GLU   -0.800
   694 C           17.948     6.013    12.392             45  GLU    0.500
   695 O           17.994     4.833    12.664             45  GLU   -0.500
   696 N           16.887     6.774    12.759             46  ASP   -0.500
   697 H           16.962     7.780    12.706             46  ASP    0.300
   698 CA          15.856     6.221    13.607             46  ASP    0.140
   699 HA          16.315     5.416    14.181             46  ASP    0.060
   700 CB          15.391     7.236    14.642             46  ASP   -0.220
   701 HB2         14.870     8.064    14.162             46  ASP    0.060
   702 HB3         16.249     7.657    15.165             46  ASP    0.060
   703 CG          14.472     6.578    15.654             46  ASP    0.700
   704 OD1         14.850     5.486    16.115             46  ASP   -0.800
   705 OD2         13.356     7.058    15.962             46  ASP   -0.800
   706 C           14.717     5.656    12.790             46  ASP    0.500
   707 O           13.572     6.141    12.932             46  ASP   -0.500
   708 N           15.060     4.751    11.917             47  THR   -0.500
   709 H           16.019     4.756    11.599             47  THR    0.300
   710 CA          14.077     4.107    11.027             47  THR    0.140
   711 HA          13.189     4.740    11.029             47  THR    0.060
   712 CB          14.742     4.179     9.590             47  THR    0.205
   713 HB          15.304     5.110     9.520             47  THR    0.060
   714 CG2         15.722     2.976     9.251             47  THR   -0.180
   715 HG21        15.760     2.801     8.176             47  THR    0.060
   716 HG22        16.735     3.199     9.586             47  THR    0.060
   717 HG23        15.329     2.103     9.772             47  THR    0.060
   718 OG1         13.742     4.207     8.551             47  THR   -0.683
   719 HG1         12.988     3.722     8.848             47  THR    0.418
   720 C           13.593     2.661    11.324             47  THR    0.500
   721 O           14.117     2.032    12.271             47  THR   -0.500
   722 N           12.565     2.244    10.607             48  MET   -0.500
   723 H           12.233     2.847     9.868             48  MET    0.300
   724 CA          11.838     0.944    10.785             48  MET    0.140
   725 HA          12.516     0.210    11.221             48  MET    0.060
   726 CB          10.601     1.180    11.729             48  MET   -0.120
   727 HB2         10.172     0.230    12.047             48  MET    0.060
   728 HB3         10.997     1.627    12.641             48  MET    0.060
   729 CG           9.493     2.135    11.210             48  MET    0.098
   730 HG2          9.932     3.028    10.765             48  MET    0.060
   731 HG3          8.916     2.489    12.064             48  MET    0.060
   732 SD           8.277     1.367    10.002             48  MET   -0.435
   733 CE           7.585    -0.218    10.864             48  MET    0.037
   734 HE1          8.152    -1.089    10.534             48  MET    0.060
   735 HE2          7.711    -0.129    11.943             48  MET    0.060
   736 HE3          6.530    -0.363    10.632             48  MET    0.060
   737 C           11.418     0.481     9.406             48  MET    0.500
   738 O           11.255     1.275     8.446             48  MET   -0.500
   739 N           11.224    -0.805     9.260             49  TYR   -0.500
   740 H           11.611    -1.432     9.950             49  TYR    0.300
   741 CA          10.880    -1.361     7.985             49  TYR    0.140
   742 HA          10.376    -0.584     7.411             49  TYR    0.060
   743 CB          12.068    -1.879     7.178             49  TYR   -0.005
   744 HB2         12.785    -2.381     7.827             49  TYR    0.060
   745 HB3         12.606    -1.015     6.788             49  TYR    0.060
   746 CG          11.754    -2.781     5.963             49  TYR   -0.115
   747 CD1         10.766    -2.409     5.035             49  TYR   -0.115
   748 HD1          9.972    -1.772     5.395             49  TYR    0.115
   749 CE1         10.501    -3.126     3.927             49  TYR   -0.115
   750 HE1          9.681    -2.835     3.287             49  TYR    0.115
   751 CZ          11.248    -4.253     3.617             49  TYR    0.150
   752 OH          11.169    -4.909     2.348             49  TYR   -0.585
   753 HH          10.434    -4.620     1.828             49  TYR    0.435
   754 CE2         12.162    -4.692     4.573             49  TYR   -0.115
   755 HE2         12.896    -5.421     4.264             49  TYR    0.115
   756 CD2         12.430    -3.959     5.642             49  TYR   -0.115
   757 HD2         13.246    -4.267     6.279             49  TYR    0.115
   758 C            9.858    -2.486     8.252             49  TYR    0.500
   759 O           10.206    -3.460     8.930             49  TYR   -0.500
   760 N            8.678    -2.446     7.717             50  GLN   -0.500
   761 H            8.482    -1.720     7.043             50  GLN    0.300
   762 CA           7.711    -3.548     7.809             50  GLN    0.140
   763 HA           8.288    -4.432     8.082             50  GLN    0.060
   764 CB           6.708    -3.311     8.897             50  GLN   -0.120
   765 HB2          7.191    -2.904     9.785             50  GLN    0.060
   766 HB3          6.000    -2.593     8.483             50  GLN    0.060
   767 CG           5.868    -4.532     9.253             50  GLN   -0.120
   768 HG2          5.357    -4.917     8.371             50  GLN    0.060
   769 HG3          6.597    -5.267     9.594             50  GLN    0.060
   770 CD           4.863    -4.323    10.368             50  GLN    0.500
   771 OE1          4.917    -3.344    11.118             50  GLN   -0.500
   772 NE2          4.047    -5.284    10.602             50  GLN   -0.760
   773 HE21         4.085    -5.771    11.486             50  GLN    0.380
   774 HE22         3.289    -5.465     9.960             50  GLN    0.380
   775 C            7.005    -3.894     6.512             50  GLN    0.500
   776 O            6.261    -3.047     5.970             50  GLN   -0.500
   777 N            7.235    -5.093     6.069             51  ASN   -0.500
   778 H            8.041    -5.589     6.422             51  ASN    0.300
   779 CA           6.520    -5.700     4.952             51  ASN    0.140
   780 HA           6.268    -4.954     4.198             51  ASN    0.060
   781 CB           7.319    -6.852     4.378             51  ASN   -0.120
   782 HB2          6.656    -7.607     3.954             51  ASN    0.060
   783 HB3          7.869    -7.267     5.223             51  ASN    0.060
   784 CG           8.338    -6.432     3.336             51  ASN    0.500
   785 OD1          8.135    -5.534     2.532             51  ASN   -0.500
   786 ND2          9.459    -7.156     3.303             51  ASN   -0.760
   787 HD21         9.815    -7.570     4.153             51  ASN    0.380
   788 HD22         9.831    -7.452     2.412             51  ASN    0.380
   789 C            5.302    -6.173     5.667             51  ASN    0.500
   790 O            5.438    -7.053     6.549             51  ASN   -0.500
   791 N            4.187    -5.533     5.451             52  MET   -0.500
   792 H            4.005    -5.207     4.512             52  MET    0.300
   793 CA           3.024    -5.700     6.307             52  MET    0.140
   794 HA           3.251    -5.230     7.264             52  MET    0.060
   795 CB           1.890    -4.741     5.814             52  MET   -0.120
   796 HB2          1.626    -4.956     4.779             52  MET    0.060
   797 HB3          0.988    -4.938     6.394             52  MET    0.060
   798 CG           2.266    -3.280     5.981             52  MET    0.098
   799 HG2          2.844    -2.929     5.126             52  MET    0.060
   800 HG3          1.331    -2.729     5.879             52  MET    0.060
   801 SD           2.990    -2.626     7.520             52  MET   -0.435
   802 CE           1.751    -3.108     8.723             52  MET    0.037
   803 HE1          1.143    -2.242     8.986             52  MET    0.060
   804 HE2          2.241    -3.460     9.631             52  MET    0.060
   805 HE3          1.108    -3.896     8.330             52  MET    0.060
   806 C            2.465    -7.149     6.613             52  MET    0.500
   807 O            1.957    -7.386     7.721             52  MET   -0.500
   808 N            2.553    -8.089     5.637             53  PRO   -0.140
   809 CD           2.903    -8.030     4.204             53  PRO   -0.050
   810 HD2          3.965    -8.241     4.081             53  PRO    0.060
   811 HD3          2.658    -7.060     3.771             53  PRO    0.060
   812 CG           2.082    -9.128     3.646             53  PRO   -0.120
   813 HG2          2.492    -9.472     2.697             53  PRO    0.060
   814 HG3          1.049    -8.817     3.491             53  PRO    0.060
   815 CB           2.185   -10.218     4.705             53  PRO   -0.120
   816 HB2          3.123   -10.763     4.605             53  PRO    0.060
   817 HB3          1.261   -10.792     4.640             53  PRO    0.060
   818 CA           2.133    -9.497     6.003             53  PRO    0.010
   819 HA           1.101    -9.533     6.352             53  PRO    0.060
   820 C            3.126   -10.216     7.050             53  PRO    0.500
   821 O            2.967   -11.388     7.360             53  PRO   -0.500
   822 N            4.139    -9.468     7.494             54  LEU   -0.500
   823 H            4.199    -8.511     7.176             54  LEU    0.300
   824 CA           5.216    -9.941     8.382             54  LEU    0.140
   825 HA           4.904   -10.863     8.873             54  LEU    0.060
   826 CB           6.454   -10.177     7.527             54  LEU   -0.120
   827 HB2          7.320   -10.383     8.156             54  LEU    0.060
   828 HB3          6.699    -9.198     7.116             54  LEU    0.060
   829 CG           6.432   -11.095     6.343             54  LEU   -0.060
   830 HG           5.691   -10.724     5.636             54  LEU    0.060
   831 CD1          7.830   -11.124     5.632             54  LEU   -0.180
   832 HD11         7.725   -11.425     4.590             54  LEU    0.060
   833 HD12         8.494   -11.838     6.119             54  LEU    0.060
   834 HD13         8.305   -10.143     5.658             54  LEU    0.060
   835 CD2          6.113   -12.551     6.655             54  LEU   -0.180
   836 HD21         6.974   -13.187     6.448             54  LEU    0.060
   837 HD22         5.282   -12.904     6.044             54  LEU    0.060
   838 HD23         5.842   -12.676     7.703             54  LEU    0.060
   839 C            5.592    -8.872     9.467             54  LEU    0.500
   840 O            5.243    -7.666     9.336             54  LEU   -0.500
   841 N            6.323    -9.320    10.546             55  PRO   -0.140
   842 CD           6.592   -10.725    10.964             55  PRO   -0.050
   843 HD2          5.670   -11.303    10.911             55  PRO    0.060
   844 HD3          7.312   -11.178    10.283             55  PRO    0.060
   845 CG           7.122   -10.704    12.362             55  PRO   -0.120
   846 HG2          7.911   -11.446    12.485             55  PRO    0.060
   847 HG3          6.339   -10.877    13.101             55  PRO    0.060
   848 CB           7.660    -9.373    12.445             55  PRO   -0.120
   849 HB2          7.685    -9.032    13.480             55  PRO    0.060
   850 HB3          8.689    -9.367    12.086             55  PRO    0.060
   851 CA           6.818    -8.449    11.601             55  PRO    0.010
   852 HA           6.024    -8.167    12.293             55  PRO    0.060
   853 C            7.633    -7.258    11.127             55  PRO    0.500
   854 O            8.232    -7.259    10.039             55  PRO   -0.500
   855 N            7.814    -6.178    11.977             56  PRO   -0.140
   856 CD           7.130    -5.909    13.247             56  PRO   -0.050
   857 HD2          7.286    -6.745    13.929             56  PRO    0.060
   858 HD3          6.062    -5.754    13.093             56  PRO    0.060
   859 CG           7.838    -4.638    13.766             56  PRO   -0.120
   860 HG2          7.142    -4.009    14.322             56  PRO    0.060
   861 HG3          8.714    -5.003    14.302             56  PRO    0.060
   862 CB           8.302    -3.951    12.552             56  PRO   -0.120
   863 HB2          9.126    -3.276    12.782             56  PRO    0.060
   864 HB3          7.501    -3.393    12.067             56  PRO    0.060
   865 CA           8.793    -5.143    11.679             56  PRO    0.010
   866 HA           8.697    -4.883    10.625             56  PRO    0.060
   867 C           10.292    -5.453    11.958             56  PRO    0.500
   868 O           10.666    -6.384    12.604             56  PRO   -0.500
   869 N           11.117    -4.550    11.571             57  ALA   -0.500
   870 H           10.750    -3.772    11.042             57  ALA    0.300
   871 CA          12.545    -4.533    11.845             57  ALA    0.140
   872 HA          12.784    -5.186    12.685             57  ALA    0.060
   873 CB          13.249    -4.996    10.530             57  ALA   -0.180
   874 HB1         12.898    -4.412     9.679             57  ALA    0.060
   875 HB2         13.032    -6.044    10.326             57  ALA    0.060
   876 HB3         14.330    -4.879    10.601             57  ALA    0.060
   877 C           12.938    -3.083    12.154             57  ALA    0.500
   878 O           12.292    -2.192    11.559             57  ALA   -0.500
   879 N           13.865    -2.853    13.111             58  TYR   -0.500
   880 H           14.509    -3.598    13.336             58  TYR    0.300
   881 CA          14.276    -1.493    13.489             58  TYR    0.140
   882 HA          13.781    -0.820    12.789             58  TYR    0.060
   883 CB          13.754    -1.159    14.937             58  TYR   -0.005
   884 HB2         14.073    -0.162    15.241             58  TYR    0.060
   885 HB3         14.237    -1.896    15.578             58  TYR    0.060
   886 CG          12.266    -1.283    15.112             58  TYR   -0.115
   887 CD1         11.449    -0.229    14.706             58  TYR   -0.115
   888 HD1         11.897     0.648    14.263             58  TYR    0.115
   889 CE1         10.101    -0.256    14.921             58  TYR   -0.115
   890 HE1          9.589     0.692    15.001             58  TYR    0.115
   891 CZ           9.492    -1.378    15.532             58  TYR    0.150
   892 OH           8.139    -1.356    15.654             58  TYR   -0.585
   893 HH           7.696    -1.217    14.831             58  TYR    0.435
   894 CE2         10.271    -2.474    15.892             58  TYR   -0.115
   895 HE2          9.802    -3.447    15.898             58  TYR    0.115
   896 CD2         11.676    -2.407    15.720             58  TYR   -0.115
   897 HD2         12.302    -3.068    16.301             58  TYR    0.115
   898 C           15.815    -1.106    13.461             58  TYR    0.500
   899 O           16.671    -1.891    13.816             58  TYR   -0.500
   900 N           16.108     0.102    13.114             59  GLY   -0.500
   901 H           15.404     0.681    12.680             59  GLY    0.300
   902 CA          17.504     0.519    13.012             59  GLY    0.080
   903 HA2         18.095    -0.004    13.764             59  GLY    0.060
   904 HA3         17.588     1.590    13.197             59  GLY    0.060
   905 C           18.035     0.192    11.642             59  GLY    0.500
   906 O           17.579    -0.778    11.011             59  GLY   -0.500
   907 N           18.972     0.917    11.151             60  ARG   -0.500
   908 H           19.191     1.796    11.598             60  ARG    0.300
   909 CA          19.513     0.680     9.809             60  ARG    0.140
   910 HA          18.693     0.760     9.095             60  ARG    0.060
   911 CB          20.486     1.797     9.481             60  ARG   -0.120
   912 HB2         21.059     2.080    10.364             60  ARG    0.060
   913 HB3         21.177     1.445     8.715             60  ARG    0.060
   914 CG          19.782     3.003     8.889             60  ARG   -0.050
   915 HG2         19.019     2.692     8.175             60  ARG    0.060
   916 HG3         19.272     3.559     9.676             60  ARG    0.060
   917 CD          20.833     3.904     8.207             60  ARG    0.190
   918 HD2         20.349     4.710     7.655             60  ARG    0.060
   919 HD3         21.389     3.320     7.474             60  ARG    0.060
   920 NE          21.778     4.463     9.147             60  ARG   -0.700
   921 HE          22.514     3.832     9.431             60  ARG    0.440
   922 CZ          22.001     5.783     9.333             60  ARG    0.640
   923 NH1         21.394     6.715     8.593             60  ARG   -0.800
   924 HH11        21.928     7.264     7.935             60  ARG    0.460
   925 HH12        20.465     7.018     8.848             60  ARG    0.460
   926 NH2         22.881     6.179    10.177             60  ARG   -0.800
   927 HH21        23.832     5.845    10.110             60  ARG    0.460
   928 HH22        22.554     6.491    11.080             60  ARG    0.460
   929 C           20.186    -0.737     9.747             60  ARG    0.500
   930 O           20.147    -1.386     8.715             60  ARG   -0.500
   931 N           20.768    -1.229    10.867             61  ASP   -0.500
   932 H           20.440    -0.863    11.749             61  ASP    0.300
   933 CA          21.349    -2.564    10.899             61  ASP    0.140
   934 HA          22.174    -2.601    10.187             61  ASP    0.060
   935 CB          21.864    -2.944    12.326             61  ASP   -0.220
   936 HB2         22.038    -4.017    12.400             61  ASP    0.060
   937 HB3         21.072    -2.648    13.015             61  ASP    0.060
   938 CG          23.127    -2.203    12.681             61  ASP    0.700
   939 OD1         24.093    -2.337    11.902             61  ASP   -0.800
   940 OD2         23.211    -1.406    13.647             61  ASP   -0.800
   941 C           20.273    -3.579    10.460             61  ASP    0.500
   942 O           20.553    -4.286     9.541             61  ASP   -0.500
   943 N           19.120    -3.567    11.105             62  ALA   -0.500
   944 H           19.113    -3.164    12.031             62  ALA    0.300
   945 CA          18.075    -4.532    10.822             62  ALA    0.140
   946 HA          18.569    -5.501    10.749             62  ALA    0.060
   947 CB          17.150    -4.590    11.960             62  ALA   -0.180
   948 HB1         16.118    -4.492    11.623             62  ALA    0.060
   949 HB2         17.349    -3.777    12.659             62  ALA    0.060
   950 HB3         17.246    -5.534    12.497             62  ALA    0.060
   951 C           17.349    -4.328     9.499             62  ALA    0.500
   952 O           16.931    -5.346     8.881             62  ALA   -0.500
   953 N           17.219    -3.099     9.004             63  VAL   -0.500
   954 H           17.809    -2.362     9.364             63  VAL    0.300
   955 CA          16.608    -2.895     7.683             63  VAL    0.140
   956 HA          15.652    -3.418     7.649             63  VAL    0.060
   957 CB          16.406    -1.376     7.345             63  VAL   -0.060
   958 HB          17.352    -0.866     7.527             63  VAL    0.060
   959 CG1         16.077    -1.237     5.812             63  VAL   -0.180
   960 HG11        16.532    -2.049     5.244             63  VAL    0.060
   961 HG12        16.466    -0.298     5.418             63  VAL    0.060
   962 HG13        14.996    -1.269     5.674             63  VAL    0.060
   963 CG2         15.387    -0.760     8.230             63  VAL   -0.180
   964 HG21        15.582    -1.009     9.273             63  VAL    0.060
   965 HG22        14.390    -1.125     7.982             63  VAL    0.060
   966 HG23        15.387     0.326     8.132             63  VAL    0.060
   967 C           17.602    -3.569     6.653             63  VAL    0.500
   968 O           17.164    -4.381     5.831             63  VAL   -0.500
   969 N           18.915    -3.300     6.739             64  GLU   -0.500
   970 H           19.283    -2.959     7.616             64  GLU    0.300
   971 CA          19.880    -3.824     5.757             64  GLU    0.140
   972 HA          19.652    -3.473     4.751             64  GLU    0.060
   973 CB          21.262    -3.208     6.066             64  GLU   -0.120
   974 HB2         21.152    -2.226     6.526             64  GLU    0.060
   975 HB3         21.747    -3.824     6.823             64  GLU    0.060
   976 CG          22.196    -3.133     4.835             64  GLU   -0.220
   977 HG2         21.814    -2.420     4.104             64  GLU    0.060
   978 HG3         22.185    -4.100     4.333             64  GLU    0.060
   979 CD          23.668    -2.802     5.156             64  GLU    0.700
   980 OE1         23.916    -1.956     5.954             64  GLU   -0.800
   981 OE2         24.555    -3.559     4.657             64  GLU   -0.800
   982 C           19.985    -5.343     5.806             64  GLU    0.500
   983 O           20.093    -6.019     4.779             64  GLU   -0.500
   984 N           19.823    -5.901     6.959             65  GLN   -0.500
   985 H           19.806    -5.314     7.781             65  GLN    0.300
   986 CA          19.842    -7.326     7.168             65  GLN    0.140
   987 HA          20.737    -7.729     6.695             65  GLN    0.060
   988 CB          19.878    -7.613     8.621             65  GLN   -0.120
   989 HB2         19.039    -7.137     9.128             65  GLN    0.060
   990 HB3         19.772    -8.696     8.691             65  GLN    0.060
   991 CG          21.159    -7.305     9.321             65  GLN   -0.120
   992 HG2         21.514    -6.309     9.056             65  GLN    0.060
   993 HG3         21.861    -8.068     8.985             65  GLN    0.060
   994 CD          21.048    -7.418    10.851             65  GLN    0.500
   995 OE1         20.050    -7.797    11.387             65  GLN   -0.500
   996 NE2         22.126    -7.061    11.548             65  GLN   -0.760
   997 HE21        22.048    -6.356    12.267             65  GLN    0.380
   998 HE22        23.036    -7.232    11.144             65  GLN    0.380
   999 C           18.619    -7.952     6.492             65  GLN    0.500
  1000 O           18.771    -9.005     5.852             65  GLN   -0.500
  1001 N           17.428    -7.394     6.706             66  THR   -0.500
  1002 H           17.400    -6.395     6.852             66  THR    0.300
  1003 CA          16.231    -7.995     6.104             66  THR    0.140
  1004 HA          16.148    -9.046     6.379             66  THR    0.060
  1005 CB          14.937    -7.270     6.442             66  THR    0.205
  1006 HB          14.864    -6.343     5.873             66  THR    0.060
  1007 CG2         13.722    -8.150     6.176             66  THR   -0.180
  1008 HG21        13.837    -8.691     5.237             66  THR    0.060
  1009 HG22        12.817    -7.546     6.105             66  THR    0.060
  1010 HG23        13.583    -8.879     6.975             66  THR    0.060
  1011 OG1         14.995    -6.961     7.823             66  THR   -0.683
  1012 HG1         14.668    -7.702     8.310             66  THR    0.418
  1013 C           16.405    -7.870     4.581             66  THR    0.500
  1014 O           16.103    -8.815     3.908             66  THR   -0.500
  1015 N           16.963    -6.769     4.094             67  LEU   -0.500
  1016 H           17.003    -5.968     4.708             67  LEU    0.300
  1017 CA          17.095    -6.471     2.669             67  LEU    0.140
  1018 HA          16.137    -6.719     2.212             67  LEU    0.060
  1019 CB          17.379    -4.997     2.380             67  LEU   -0.120
  1020 HB2         18.250    -4.656     2.940             67  LEU    0.060
  1021 HB3         17.699    -4.936     1.340             67  LEU    0.060
  1022 CG          16.168    -3.976     2.551             67  LEU   -0.060
  1023 HG          15.656    -4.132     3.501             67  LEU    0.060
  1024 CD1         16.726    -2.578     2.460             67  LEU   -0.180
  1025 HD11        17.790    -2.603     2.226             67  LEU    0.060
  1026 HD12        16.225    -2.014     1.673             67  LEU    0.060
  1027 HD13        16.596    -2.041     3.400             67  LEU    0.060
  1028 CD2         15.208    -4.139     1.378             67  LEU   -0.180
  1029 HD21        14.202    -4.364     1.732             67  LEU    0.060
  1030 HD22        15.524    -4.959     0.733             67  LEU    0.060
  1031 HD23        15.164    -3.230     0.778             67  LEU    0.060
  1032 C           18.148    -7.443     2.041             67  LEU    0.500
  1033 O           17.931    -7.956     0.936             67  LEU   -0.500
  1034 N           19.201    -7.733     2.721             68  ALA   -0.500
  1035 H           19.156    -7.562     3.715             68  ALA    0.300
  1036 CA          20.147    -8.763     2.301             68  ALA    0.140
  1037 HA          20.429    -8.544     1.271             68  ALA    0.060
  1038 CB          21.446    -8.763     3.188             68  ALA   -0.180
  1039 HB1         22.178    -9.470     2.798             68  ALA    0.060
  1040 HB2         21.214    -9.055     4.212             68  ALA    0.060
  1041 HB3         21.816    -7.739     3.142             68  ALA    0.060
  1042 C           19.458   -10.124     2.304             68  ALA    0.500
  1043 O           19.532   -10.876     1.372             68  ALA   -0.500
  1044 N           18.677   -10.473     3.359             69  GLY   -0.500
  1045 H           18.614    -9.842     4.145             69  GLY    0.300
  1046 CA          18.000   -11.775     3.481             69  GLY    0.080
  1047 HA2         17.478   -11.827     4.437             69  GLY    0.060
  1048 HA3         18.760   -12.556     3.498             69  GLY    0.060
  1049 C           17.011   -12.085     2.333             69  GLY    0.500
  1050 O           17.009   -13.182     1.814             69  GLY   -0.500
  1051 N           16.235   -11.089     1.976             70  LEU   -0.500
  1052 H           16.082   -10.366     2.664             70  LEU    0.300
  1053 CA          15.208   -11.202     0.956             70  LEU    0.140
  1054 HA          14.516   -12.001     1.222             70  LEU    0.060
  1055 CB          14.346    -9.893     0.883             70  LEU   -0.120
  1056 HB2         13.890    -9.789    -0.101             70  LEU    0.060
  1057 HB3         15.068    -9.076     0.892             70  LEU    0.060
  1058 CG          13.360    -9.557     1.962             70  LEU   -0.060
  1059 HG          13.856    -9.573     2.933             70  LEU    0.060
  1060 CD1         12.837    -8.193     1.687             70  LEU   -0.180
  1061 HD11        12.879    -7.576     2.584             70  LEU    0.060
  1062 HD12        11.797    -8.238     1.363             70  LEU    0.060
  1063 HD13        13.416    -7.700     0.906             70  LEU    0.060
  1064 CD2         12.217   -10.562     1.952             70  LEU   -0.180
  1065 HD21        12.574   -11.554     2.230             70  LEU    0.060
  1066 HD22        11.778   -10.634     0.957             70  LEU    0.060
  1067 HD23        11.433   -10.273     2.652             70  LEU    0.060
  1068 C           15.832   -11.499    -0.433             70  LEU    0.500
  1069 O           15.454   -12.494    -1.086             70  LEU   -0.500
  1070 N           16.902   -10.842    -0.808             71  PHE   -0.500
  1071 H           17.218   -10.091    -0.212             71  PHE    0.300
  1072 CA          17.725   -11.104    -2.034             71  PHE    0.140
  1073 HA          17.094   -10.923    -2.904             71  PHE    0.060
  1074 CB          18.867   -10.067    -2.017             71  PHE   -0.005
  1075 HB2         19.037    -9.699    -1.005             71  PHE    0.060
  1076 HB3         18.555    -9.199    -2.597             71  PHE    0.060
  1077 CG          20.197   -10.560    -2.612             71  PHE   -0.115
  1078 CD1         20.368   -10.662    -3.973             71  PHE   -0.115
  1079 HD1         19.546   -10.391    -4.619             71  PHE    0.115
  1080 CE1         21.573   -11.109    -4.562             71  PHE   -0.115
  1081 HE1         21.788   -10.873    -5.594             71  PHE    0.115
  1082 CZ          22.624   -11.451    -3.685             71  PHE   -0.115
  1083 HZ          23.492   -11.967    -4.067             71  PHE    0.115
  1084 CE2         22.417   -11.363    -2.274             71  PHE   -0.115
  1085 HE2         23.298   -11.271    -1.656             71  PHE    0.115
  1086 CD2         21.235   -10.886    -1.747             71  PHE   -0.115
  1087 HD2         21.271   -10.374    -0.797             71  PHE    0.115
  1088 C           18.237   -12.582    -2.119             71  PHE    0.500
  1089 O           18.356   -13.098    -3.276             71  PHE   -0.500
  1090 N           18.433   -13.263    -1.021             72  LYS   -0.500
  1091 H           18.520   -12.752    -0.154             72  LYS    0.300
  1092 CA          18.966   -14.641    -1.034             72  LYS    0.140
  1093 HA          19.693   -14.677    -1.846             72  LYS    0.060
  1094 CB          19.683   -15.133     0.266             72  LYS   -0.120
  1095 HB2         18.965   -15.267     1.075             72  LYS    0.060
  1096 HB3         20.066   -16.135     0.072             72  LYS    0.060
  1097 CG          20.874   -14.261     0.731             72  LYS   -0.120
  1098 HG2         21.685   -14.299     0.003             72  LYS    0.060
  1099 HG3         20.552   -13.220     0.733             72  LYS    0.060
  1100 CD          21.401   -14.609     2.166             72  LYS   -0.120
  1101 HD2         20.711   -14.247     2.928             72  LYS    0.060
  1102 HD3         22.327   -14.059     2.333             72  LYS    0.060
  1103 CE          21.677   -16.052     2.354             72  LYS    0.190
  1104 HE2         20.783   -16.644     2.157             72  LYS    0.060
  1105 HE3         22.447   -16.384     1.657             72  LYS    0.060
  1106 NZ          22.154   -16.309     3.791             72  LYS   -0.300
  1107 HZ1         21.357   -16.346     4.410             72  LYS    0.330
  1108 HZ2         22.769   -15.562     4.079             72  LYS    0.330
  1109 HZ3         22.650   -17.188     3.829             72  LYS    0.330
  1110 C           17.867   -15.702    -1.375             72  LYS    0.500
  1111 O           18.181   -16.829    -1.620             72  LYS   -0.500
  1112 N           16.628   -15.264    -1.462             73  VAL   -0.500
  1113 H           16.408   -14.333    -1.139             73  VAL    0.300
  1114 CA          15.513   -16.103    -2.003             73  VAL    0.140
  1115 HA          15.884   -17.055    -2.382             73  VAL    0.060
  1116 CB          14.594   -16.530    -0.810             73  VAL   -0.060
  1117 HB          13.758   -17.097    -1.219             73  VAL    0.060
  1118 CG1         15.355   -17.438     0.133             73  VAL   -0.180
  1119 HG11        14.669   -17.959     0.801             73  VAL    0.060
  1120 HG12        16.045   -16.861     0.749             73  VAL    0.060
  1121 HG13        15.879   -18.141    -0.515             73  VAL    0.060
  1122 CG2         14.012   -15.318    -0.038             73  VAL   -0.180
  1123 HG21        12.926   -15.294    -0.124             73  VAL    0.060
  1124 HG22        14.260   -15.382     1.021             73  VAL    0.060
  1125 HG23        14.407   -14.379    -0.426             73  VAL    0.060
  1126 C           14.626   -15.403    -3.079             73  VAL    0.500
  1127 O           13.838   -16.132    -3.729             73  VAL   -0.500
  1128 N           14.689   -14.086    -3.347             74  MET   -0.500
  1129 H           15.478   -13.547    -3.021             74  MET    0.300
  1130 CA          13.903   -13.554    -4.403             74  MET    0.140
  1131 HA          13.758   -14.346    -5.138             74  MET    0.060
  1132 CB          12.512   -13.053    -3.920             74  MET   -0.120
  1133 HB2         11.830   -12.941    -4.763             74  MET    0.060
  1134 HB3         12.082   -13.856    -3.321             74  MET    0.060
  1135 CG          12.508   -11.781    -3.043             74  MET    0.098
  1136 HG2         13.121   -11.001    -3.494             74  MET    0.060
  1137 HG3         12.814   -12.034    -2.028             74  MET    0.060
  1138 SD          10.824   -11.236    -2.964             74  MET   -0.435
  1139 CE          10.276   -11.933    -1.498             74  MET    0.037
  1140 HE1          9.327   -11.479    -1.212             74  MET    0.060
  1141 HE2         10.996   -11.726    -0.706             74  MET    0.060
  1142 HE3         10.170   -13.008    -1.644             74  MET    0.060
  1143 C           14.651   -12.435    -5.078             74  MET    0.500
  1144 O           15.422   -11.680    -4.432             74  MET   -0.500
  1145 N           14.276   -12.213    -6.324             75  SER   -0.500
  1146 H           13.342   -12.496    -6.585             75  SER    0.300
  1147 CA          14.863   -11.109    -7.092             75  SER    0.140
  1148 HA          15.570   -10.576    -6.456             75  SER    0.060
  1149 CB          15.614   -11.757    -8.296             75  SER    0.145
  1150 HB2         16.077   -12.698    -7.999             75  SER    0.060
  1151 HB3         14.888   -12.012    -9.068             75  SER    0.060
  1152 OG          16.619   -10.892    -8.906             75  SER   -0.683
  1153 HG          16.928   -10.284    -8.252             75  SER    0.418
  1154 C           13.815   -10.131    -7.581             75  SER    0.500
  1155 O           12.743   -10.518    -8.065             75  SER   -0.500
  1156 N           14.090    -8.848    -7.538             76  ILE   -0.500
  1157 H           15.069    -8.613    -7.458             76  ILE    0.300
  1158 CA          13.239    -7.740    -8.040             76  ILE    0.140
  1159 HA          12.187    -8.027    -8.044             76  ILE    0.060
  1160 CB          13.488    -6.409    -7.261             76  ILE   -0.060
  1161 HB          14.547    -6.158    -7.323             76  ILE    0.060
  1162 CG2         12.644    -5.233    -7.894             76  ILE   -0.180
  1163 HG21        12.697    -4.341    -7.269             76  ILE    0.060
  1164 HG22        11.595    -5.516    -7.982             76  ILE    0.060
  1165 HG23        13.066    -5.054    -8.883             76  ILE    0.060
  1166 CG1         13.090    -6.530    -5.781             76  ILE   -0.120
  1167 HG12        12.060    -6.873    -5.687             76  ILE    0.060
  1168 HG13        13.676    -7.349    -5.363             76  ILE    0.060
  1169 CD1         13.338    -5.295    -4.880             76  ILE   -0.180
  1170 HD11        12.850    -5.419    -3.913             76  ILE    0.060
  1171 HD12        12.936    -4.393    -5.342             76  ILE    0.060
  1172 HD13        14.412    -5.178    -4.738             76  ILE    0.060
  1173 C           13.781    -7.625    -9.470             76  ILE    0.500
  1174 O           14.974    -7.499    -9.630             76  ILE   -0.500
  1175 N           12.955    -7.732   -10.456             77  ASP   -0.500
  1176 H           11.995    -7.467   -10.288             77  ASP    0.300
  1177 CA          13.442    -7.591   -11.789             77  ASP    0.140
  1178 HA          14.530    -7.658   -11.785             77  ASP    0.060
  1179 CB          12.837    -8.726   -12.611             77  ASP   -0.220
  1180 HB2         11.782    -8.857   -12.370             77  ASP    0.060
  1181 HB3         12.968    -8.415   -13.647             77  ASP    0.060
  1182 CG          13.571   -10.056   -12.424             77  ASP    0.700
  1183 OD1         14.807   -10.054   -12.274             77  ASP   -0.800
  1184 OD2         12.947   -11.152   -12.633             77  ASP   -0.800
  1185 C           13.015    -6.263   -12.437             77  ASP    0.500
  1186 O           13.781    -5.781   -13.313             77  ASP   -0.500
  1187 N           11.853    -5.727   -12.125             78  ALA   -0.500
  1188 H           11.437    -5.996   -11.245             78  ALA    0.300
  1189 CA          11.382    -4.428   -12.703             78  ALA    0.140
  1190 HA          12.241    -3.764   -12.793             78  ALA    0.060
  1191 CB          10.758    -4.629   -14.065             78  ALA   -0.180
  1192 HB1         11.099    -5.563   -14.511             78  ALA    0.060
  1193 HB2         11.036    -3.819   -14.739             78  ALA    0.060
  1194 HB3          9.670    -4.660   -13.998             78  ALA    0.060
  1195 C           10.393    -3.799   -11.712             78  ALA    0.500
  1196 O            9.733    -4.505   -10.953             78  ALA   -0.500
  1197 N           10.378    -2.493   -11.633             79  VAL   -0.500
  1198 H           11.237    -2.024   -11.882             79  VAL    0.300
  1199 CA           9.501    -1.721   -10.731             79  VAL    0.140
  1200 HA           8.747    -2.378   -10.298             79  VAL    0.060
  1201 CB          10.348    -1.047    -9.625             79  VAL   -0.060
  1202 HB          11.098    -0.399   -10.078             79  VAL    0.060
  1203 CG1          9.464    -0.244    -8.728             79  VAL   -0.180
  1204 HG11         9.632    -0.509    -7.684             79  VAL    0.060
  1205 HG12         8.414    -0.430    -8.954             79  VAL    0.060
  1206 HG13         9.654     0.823    -8.843             79  VAL    0.060
  1207 CG2         11.055    -2.205    -8.828             79  VAL   -0.180
  1208 HG21        10.373    -3.042    -8.677             79  VAL    0.060
  1209 HG22        11.380    -1.857    -7.847             79  VAL    0.060
  1210 HG23        11.926    -2.517    -9.404             79  VAL    0.060
  1211 C            8.823    -0.645   -11.576             79  VAL    0.500
  1212 O            9.555     0.133   -12.212             79  VAL   -0.500
  1213 N            7.509    -0.570   -11.649             80  GLU   -0.500
  1214 H            7.026    -1.455   -11.588             80  GLU    0.300
  1215 CA           6.824     0.443   -12.417             80  GLU    0.140
  1216 HA           7.557     1.185   -12.734             80  GLU    0.060
  1217 CB           6.184    -0.178   -13.626             80  GLU   -0.120
  1218 HB2          6.843    -0.926   -14.067             80  GLU    0.060
  1219 HB3          5.300    -0.728   -13.304             80  GLU    0.060
  1220 CG           5.753     0.862   -14.685             80  GLU   -0.220
  1221 HG2          5.544     1.824   -14.218             80  GLU    0.060
  1222 HG3          4.829     0.538   -15.163             80  GLU    0.060
  1223 CD           6.824     1.041   -15.772             80  GLU    0.700
  1224 OE1          7.786     1.820   -15.600             80  GLU   -0.800
  1225 OE2          6.655     0.496   -16.885             80  GLU   -0.800
  1226 C            5.799     1.134   -11.534             80  GLU    0.500
  1227 O            4.837     0.475   -11.055             80  GLU   -0.500
  1228 N            6.144     2.377   -11.173             81  VAL   -0.500
  1229 H            6.937     2.808   -11.627             81  VAL    0.300
  1230 CA           5.343     3.220   -10.283             81  VAL    0.140
  1231 HA           4.836     2.618    -9.529             81  VAL    0.060
  1232 CB           6.250     4.336    -9.640             81  VAL   -0.060
  1233 HB           6.750     4.867   -10.450             81  VAL    0.060
  1234 CG1          5.417     5.342    -8.868             81  VAL   -0.180
  1235 HG11         4.544     5.645    -9.446             81  VAL    0.060
  1236 HG12         6.000     6.238    -8.652             81  VAL    0.060
  1237 HG13         5.071     4.923    -7.923             81  VAL    0.060
  1238 CG2          7.350     3.742    -8.707             81  VAL   -0.180
  1239 HG21         7.188     4.052    -7.675             81  VAL    0.060
  1240 HG22         7.329     2.653    -8.733             81  VAL    0.060
  1241 HG23         8.288     4.120    -9.114             81  VAL    0.060
  1242 C            4.319     3.940   -11.197             81  VAL    0.500
  1243 O            4.656     4.704   -12.116             81  VAL   -0.500
  1244 N            3.044     3.690   -10.879             82  PHE   -0.500
  1245 H            2.831     2.951   -10.224             82  PHE    0.300
  1246 CA           1.949     4.304   -11.593             82  PHE    0.140
  1247 HA           2.351     4.663   -12.540             82  PHE    0.060
  1248 CB           0.900     3.230   -11.887             82  PHE   -0.005
  1249 HB2          0.608     2.717   -10.971             82  PHE    0.060
  1250 HB3          0.025     3.762   -12.261             82  PHE    0.060
  1251 CG           1.283     2.211   -12.932             82  PHE   -0.115
  1252 CD1          1.786     2.570   -14.248             82  PHE   -0.115
  1253 HD1          1.995     3.605   -14.473             82  PHE    0.115
  1254 CE1          2.183     1.619   -15.098             82  PHE   -0.115
  1255 HE1          2.161     1.856   -16.151             82  PHE    0.115
  1256 CZ           2.117     0.279   -14.751             82  PHE   -0.115
  1257 HZ           2.446    -0.477   -15.449             82  PHE    0.115
  1258 CE2          1.701    -0.084   -13.484             82  PHE   -0.115
  1259 HE2          1.557    -1.130   -13.257             82  PHE    0.115
  1260 CD2          1.197     0.874   -12.611             82  PHE   -0.115
  1261 HD2          1.026     0.597   -11.581             82  PHE    0.115
  1262 C            1.269     5.494   -10.919             82  PHE    0.500
  1263 O            0.725     6.394   -11.618             82  PHE   -0.500
  1264 N            1.265     5.537    -9.615             83  HIP   -0.500
  1265 H            1.364     4.678    -9.094             83  HIP    0.300
  1266 CA           0.690     6.728    -8.903             83  HIP    0.140
  1267 HA           0.618     7.550    -9.615             83  HIP    0.060
  1268 CB          -0.728     6.368    -8.382             83  HIP   -0.005
  1269 HB2         -0.690     5.485    -7.744             83  HIP    0.060
  1270 HB3         -1.032     7.243    -7.808             83  HIP    0.060
  1271 CG          -1.762     6.152    -9.488             83  HIP    0.215
  1272 ND1         -2.646     5.085    -9.513             83  HIP   -0.540
  1273 HD1         -2.331     4.163    -9.246             83  HIP    0.460
  1274 CE1         -3.440     5.229   -10.538             83  HIP    0.385
  1275 HE1         -4.461     4.881   -10.477             83  HIP    0.115
  1276 NE2         -3.168     6.335   -11.208             83  HIP   -0.540
  1277 HE2         -3.920     6.931   -11.523             83  HIP    0.460
  1278 CD2         -2.095     6.874   -10.582             83  HIP    0.215
  1279 HD2         -1.532     7.640   -11.094             83  HIP    0.115
  1280 C            1.628     7.157    -7.768             83  HIP    0.500
  1281 O            2.335     6.314    -7.207             83  HIP   -0.500
  1282 N            1.611     8.455    -7.492             84  ILE   -0.500
  1283 H            0.752     8.951    -7.682             84  ILE    0.300
  1284 CA           2.476     9.063    -6.475             84  ILE    0.140
  1285 HA           2.803     8.303    -5.766             84  ILE    0.060
  1286 CB           3.841     9.620    -7.126             84  ILE   -0.060
  1287 HB           4.166     8.900    -7.878             84  ILE    0.060
  1288 CG2          3.607    10.987    -7.855             84  ILE   -0.180
  1289 HG21         2.541    11.182    -7.976             84  ILE    0.060
  1290 HG22         4.032    11.809    -7.279             84  ILE    0.060
  1291 HG23         4.068    10.989    -8.843             84  ILE    0.060
  1292 CG1          4.915     9.668    -6.042             84  ILE   -0.120
  1293 HG12         4.747    10.511    -5.372             84  ILE    0.060
  1294 HG13         4.790     8.787    -5.413             84  ILE    0.060
  1295 CD1          6.346     9.669    -6.558             84  ILE   -0.180
  1296 HD11         7.044     9.419    -5.759             84  ILE    0.060
  1297 HD12         6.470     8.933    -7.353             84  ILE    0.060
  1298 HD13         6.585    10.662    -6.938             84  ILE    0.060
  1299 C            1.744    10.209    -5.698             84  ILE    0.500
  1300 O            0.845    10.901    -6.263             84  ILE   -0.500
  1301 N            2.106    10.322    -4.411             85  GLY   -0.500
  1302 H            2.976     9.897    -4.125             85  GLY    0.300
  1303 CA           1.600    11.402    -3.587             85  GLY    0.080
  1304 HA2          1.469    12.294    -4.199             85  GLY    0.060
  1305 HA3          0.620    11.126    -3.198             85  GLY    0.060
  1306 C            2.526    11.717    -2.426             85  GLY    0.500
  1307 O            3.441    10.931    -2.209             85  GLY   -0.500
  1308 N            2.368    12.841    -1.807             86  SER   -0.500
  1309 H            1.480    13.316    -1.889             86  SER    0.300
  1310 CA           3.220    13.175    -0.620             86  SER    0.140
  1311 HA           3.554    12.230    -0.191             86  SER    0.060
  1312 CB           4.469    13.978    -1.064             86  SER    0.145
  1313 HB2          4.975    14.411    -0.201             86  SER    0.060
  1314 HB3          5.184    13.314    -1.550             86  SER    0.060
  1315 OG           4.106    15.037    -1.996             86  SER   -0.683
  1316 HG           4.570    14.895    -2.807             86  SER    0.418
  1317 C            2.448    13.935     0.499             86  SER    0.500
  1318 O            1.345    14.408     0.298             86  SER   -0.500
  1319 N            3.137    14.187     1.593             87  SER   -0.500
  1320 H            4.068    13.805     1.683             87  SER    0.300
  1321 CA           2.641    15.073     2.692             87  SER    0.140
  1322 HA           2.063    15.920     2.323             87  SER    0.060
  1323 CB           1.762    14.272     3.637             87  SER    0.145
  1324 HB2          2.095    14.394     4.668             87  SER    0.060
  1325 HB3          1.796    13.256     3.244             87  SER    0.060
  1326 OG           0.409    14.829     3.491             87  SER   -0.683
  1327 HG           0.454    15.764     3.619             87  SER    0.418
  1328 C            3.883    15.589     3.496             87  SER    0.500
  1329 O            4.961    15.151     3.258             87  SER   -0.500
  1330 N            3.662    16.486     4.439             88  LYS   -0.500
  1331 H            2.862    17.098     4.361             88  LYS    0.300
  1332 CA           4.737    16.898     5.271             88  LYS    0.140
  1333 HA           5.453    17.458     4.670             88  LYS    0.060
  1334 CB           4.165    17.809     6.412             88  LYS   -0.120
  1335 HB2          3.684    18.693     5.993             88  LYS    0.060
  1336 HB3          3.366    17.263     6.913             88  LYS    0.060
  1337 CG           5.175    18.194     7.436             88  LYS   -0.120
  1338 HG2          5.673    17.310     7.835             88  LYS    0.060
  1339 HG3          5.952    18.797     6.967             88  LYS    0.060
  1340 CD           4.526    18.990     8.549             88  LYS   -0.120
  1341 HD2          4.322    20.010     8.223             88  LYS    0.060
  1342 HD3          3.564    18.546     8.805             88  LYS    0.060
  1343 CE           5.438    18.987     9.778             88  LYS    0.190
  1344 HE2          5.748    17.972    10.026             88  LYS    0.060
  1345 HE3          6.354    19.526     9.536             88  LYS    0.060
  1346 NZ           4.812    19.668    11.047             88  LYS   -0.300
  1347 HZ1          4.197    20.416    10.758             88  LYS    0.330
  1348 HZ2          5.549    20.044    11.626             88  LYS    0.330
  1349 HZ3          4.287    18.984    11.572             88  LYS    0.330
  1350 C            5.415    15.682     5.821             88  LYS    0.500
  1351 O            4.729    14.828     6.515             88  LYS   -0.500
  1352 N            6.689    15.482     5.508             89  GLY   -0.500
  1353 H            7.178    16.228     5.034             89  GLY    0.300
  1354 CA           7.508    14.395     6.014             89  GLY    0.080
  1355 HA2          7.541    14.442     7.102             89  GLY    0.060
  1356 HA3          8.523    14.519     5.636             89  GLY    0.060
  1357 C            6.968    12.994     5.569             89  GLY    0.500
  1358 O            7.137    12.019     6.338             89  GLY   -0.500
  1359 N            6.224    12.897     4.498             90  LEU   -0.500
  1360 H            6.047    13.734     3.961             90  LEU    0.300
  1361 CA           5.609    11.653     4.015             90  LEU    0.140
  1362 HA           6.188    10.811     4.393             90  LEU    0.060
  1363 CB           4.160    11.575     4.552             90  LEU   -0.120
  1364 HB2          3.471    11.286     3.758             90  LEU    0.060
  1365 HB3          3.862    12.596     4.789             90  LEU    0.060
  1366 CG           3.910    10.746     5.809             90  LEU   -0.060
  1367 HG           4.695    10.970     6.532             90  LEU    0.060
  1368 CD1          2.640    11.214     6.357             90  LEU   -0.180
  1369 HD11         2.675    12.286     6.550             90  LEU    0.060
  1370 HD12         2.421    10.714     7.300             90  LEU    0.060
  1371 HD13         1.819    11.018     5.667             90  LEU    0.060
  1372 CD2          3.877     9.227     5.527             90  LEU   -0.180
  1373 HD21         4.858     8.782     5.695             90  LEU    0.060
  1374 HD22         3.596     9.034     4.492             90  LEU    0.060
  1375 HD23         3.148     8.765     6.193             90  LEU    0.060
  1376 C            5.586    11.580     2.511             90  LEU    0.500
  1377 O            5.528    12.689     1.902             90  LEU   -0.500
  1378 N            5.613    10.398     1.966             91  VAL   -0.500
  1379 H            5.720     9.592     2.565             91  VAL    0.300
  1380 CA           5.475    10.151     0.510             91  VAL    0.140
  1381 HA           4.855    10.933     0.071             91  VAL    0.060
  1382 CB           6.859    10.113    -0.179             91  VAL   -0.060
  1383 HB           7.485     9.414     0.375             91  VAL    0.060
  1384 CG1          6.783     9.620    -1.654             91  VAL   -0.180
  1385 HG11         6.224     8.686    -1.719             91  VAL    0.060
  1386 HG12         6.276    10.355    -2.279             91  VAL    0.060
  1387 HG13         7.779     9.451    -2.063             91  VAL    0.060
  1388 CG2          7.566    11.465    -0.191             91  VAL   -0.180
  1389 HG21         8.367    11.476    -0.931             91  VAL    0.060
  1390 HG22         8.010    11.675     0.782             91  VAL    0.060
  1391 HG23         6.807    12.208    -0.438             91  VAL    0.060
  1392 C            4.775     8.785     0.327             91  VAL    0.500
  1393 O            4.898     7.887     1.115             91  VAL   -0.500
  1394 N            4.005     8.663    -0.725             92  PHE   -0.500
  1395 H            3.832     9.472    -1.304             92  PHE    0.300
  1396 CA           3.238     7.447    -1.004             92  PHE    0.140
  1397 HA           3.638     6.627    -0.408             92  PHE    0.060
  1398 CB           1.770     7.645    -0.710             92  PHE   -0.005
  1399 HB2          1.192     6.780    -1.036             92  PHE    0.060
  1400 HB3          1.453     8.502    -1.304             92  PHE    0.060
  1401 CG           1.409     7.983     0.750             92  PHE   -0.115
  1402 CD1          1.516     9.292     1.184             92  PHE   -0.115
  1403 HD1          2.096    10.001     0.611             92  PHE    0.115
  1404 CE1          1.094     9.621     2.451             92  PHE   -0.115
  1405 HE1          1.388    10.565     2.886             92  PHE    0.115
  1406 CZ           0.494     8.630     3.264             92  PHE   -0.115
  1407 HZ           0.200     8.867     4.276             92  PHE    0.115
  1408 CE2          0.425     7.336     2.813             92  PHE   -0.115
  1409 HE2          0.217     6.551     3.525             92  PHE    0.115
  1410 CD2          0.936     6.996     1.611             92  PHE   -0.115
  1411 HD2          0.618     6.060     1.176             92  PHE    0.115
  1412 C            3.404     7.124    -2.464             92  PHE    0.500
  1413 O            3.392     8.072    -3.303             92  PHE   -0.500
  1414 N            3.441     5.844    -2.829             93  THR   -0.500
  1415 H            3.657     5.166    -2.112             93  THR    0.300
  1416 CA           3.555     5.377    -4.224             93  THR    0.140
  1417 HA           3.211     6.146    -4.916             93  THR    0.060
  1418 CB           5.021     4.929    -4.538             93  THR    0.205
  1419 HB           5.040     4.381    -5.480             93  THR    0.060
  1420 CG2          6.027     6.050    -4.607             93  THR   -0.180
  1421 HG21         5.823     6.698    -5.459             93  THR    0.060
  1422 HG22         7.036     5.655    -4.723             93  THR    0.060
  1423 HG23         5.986     6.599    -3.667             93  THR    0.060
  1424 OG1          5.491     4.081    -3.516             93  THR   -0.683
  1425 HG1          4.789     3.502    -3.260             93  THR    0.418
  1426 C            2.744     4.083    -4.409             93  THR    0.500
  1427 O            2.878     3.136    -3.645             93  THR   -0.500
  1428 N            1.989     4.001    -5.521             94  GLU   -0.500
  1429 H            1.843     4.830    -6.079             94  GLU    0.300
  1430 CA           1.364     2.771    -5.962             94  GLU    0.140
  1431 HA           1.401     2.030    -5.164             94  GLU    0.060
  1432 CB          -0.085     3.002    -6.440             94  GLU   -0.120
  1433 HB2         -0.110     3.721    -7.259             94  GLU    0.060
  1434 HB3         -0.639     3.476    -5.630             94  GLU    0.060
  1435 CG          -0.833     1.687    -6.838             94  GLU   -0.220
  1436 HG2         -0.769     0.951    -6.037             94  GLU    0.060
  1437 HG3         -0.372     1.245    -7.721             94  GLU    0.060
  1438 CD          -2.297     1.983    -7.139             94  GLU    0.700
  1439 OE1         -2.692     3.141    -7.494             94  GLU   -0.800
  1440 OE2         -3.042     1.009    -7.191             94  GLU   -0.800
  1441 C            2.183     2.302    -7.139             94  GLU    0.500
  1442 O            2.513     3.123    -8.031             94  GLU   -0.500
  1443 N            2.564     1.033    -7.130             95  ARG   -0.500
  1444 H            1.967     0.380    -6.644             95  ARG    0.300
  1445 CA           3.424     0.468    -8.154             95  ARG    0.140
  1446 HA           3.243     1.001    -9.088             95  ARG    0.060
  1447 CB           4.858     0.644    -7.741             95  ARG   -0.120
  1448 HB2          5.069     1.689    -7.513             95  ARG    0.060
  1449 HB3          5.480     0.422    -8.608             95  ARG    0.060
  1450 CG           5.314    -0.249    -6.614             95  ARG   -0.050
  1451 HG2          5.442    -1.273    -6.964             95  ARG    0.060
  1452 HG3          4.553    -0.186    -5.836             95  ARG    0.060
  1453 CD           6.639     0.279    -5.952             95  ARG    0.190
  1454 HD2          6.437     1.151    -5.330             95  ARG    0.060
  1455 HD3          7.323     0.612    -6.733             95  ARG    0.060
  1456 NE           7.325    -0.740    -5.155             95  ARG   -0.700
  1457 HE           8.068    -1.227    -5.635             95  ARG    0.440
  1458 CZ           7.302    -0.868    -3.825             95  ARG    0.640
  1459 NH1          7.946    -1.838    -3.282             95  ARG   -0.800
  1460 HH11         8.955    -1.855    -3.314             95  ARG    0.460
  1461 HH12         7.468    -2.723    -3.196             95  ARG    0.460
  1462 NH2          6.659    -0.028    -3.040             95  ARG   -0.800
  1463 HH21         5.837    -0.334    -2.539             95  ARG    0.460
  1464 HH22         6.892     0.955    -3.064             95  ARG    0.460
  1465 C            3.151    -1.038    -8.391             95  ARG    0.500
  1466 O            2.428    -1.637    -7.593             95  ARG   -0.500
  1467 N            3.724    -1.608    -9.461             96  VAL   -0.500
  1468 H            3.931    -1.041   -10.271             96  VAL    0.300
  1469 CA           3.771    -3.044    -9.612             96  VAL    0.140
  1470 HA           3.189    -3.454    -8.787             96  VAL    0.060
  1471 CB           3.007    -3.409   -10.902             96  VAL   -0.060
  1472 HB           3.487    -2.931   -11.756             96  VAL    0.060
  1473 CG1          3.012    -4.907   -11.095             96  VAL   -0.180
  1474 HG11         3.942    -5.232   -11.561             96  VAL    0.060
  1475 HG12         2.190    -5.215   -11.742             96  VAL    0.060
  1476 HG13         2.909    -5.426   -10.142             96  VAL    0.060
  1477 CG2          1.519    -2.937   -10.809             96  VAL   -0.180
  1478 HG21         1.083    -3.225    -9.852             96  VAL    0.060
  1479 HG22         0.920    -3.390   -11.599             96  VAL    0.060
  1480 HG23         1.535    -1.854   -10.929             96  VAL    0.060
  1481 C            5.226    -3.549    -9.526             96  VAL    0.500
  1482 O            6.154    -2.997   -10.203             96  VAL   -0.500
  1483 N            5.416    -4.576    -8.741             97  ASH   -0.500
  1484 H            4.616    -5.106    -8.426             97  ASH    0.300
  1485 CA           6.758    -5.189    -8.579             97  ASH    0.140
  1486 HA           7.473    -4.541    -9.086             97  ASH    0.060
  1487 CB           7.217    -5.371    -7.103             97  ASH   -0.120
  1488 HB2          6.398    -5.747    -6.490             97  ASH    0.060
  1489 HB3          8.011    -6.117    -7.056             97  ASH    0.060
  1490 CG           7.732    -4.097    -6.518             97  ASH    0.520
  1491 OD1          7.440    -3.057    -6.970             97  ASH   -0.530
  1492 OD2          8.574    -4.164    -5.539             97  ASH   -0.440
  1493 HD1          6.628    -2.719    -6.624             97  ASH    0.450
  1494 C            6.774    -6.537    -9.299             97  ASH    0.500
  1495 O            5.878    -7.420    -9.152             97  ASH   -0.500
  1496 N            7.787    -6.650   -10.134             98  VAL   -0.500
  1497 H            8.274    -5.821   -10.442             98  VAL    0.300
  1498 CA           8.041    -7.902   -10.840             98  VAL    0.140
  1499 HA           7.111    -8.470   -10.853             98  VAL    0.060
  1500 CB           8.518    -7.771   -12.261             98  VAL   -0.060
  1501 HB           9.525    -7.354   -12.261             98  VAL    0.060
  1502 CG1          8.528    -9.037   -12.982             98  VAL   -0.180
  1503 HG11         8.881    -9.844   -12.340             98  VAL    0.060
  1504 HG12         7.524    -9.295   -13.319             98  VAL    0.060
  1505 HG13         9.178    -8.987   -13.855             98  VAL    0.060
  1506 CG2          7.583    -6.828   -13.034             98  VAL   -0.180
  1507 HG21         6.585    -6.830   -12.595             98  VAL    0.060
  1508 HG22         7.489    -7.145   -14.073             98  VAL    0.060
  1509 HG23         8.038    -5.839   -12.985             98  VAL    0.060
  1510 C            9.024    -8.712    -9.964             98  VAL    0.500
  1511 O           10.235    -8.517   -10.044             98  VAL   -0.500
  1512 N            8.448    -9.608    -9.170             99  LEU   -0.500
  1513 H            7.567    -9.999    -9.473             99  LEU    0.300
  1514 CA           9.206   -10.385    -8.211             99  LEU    0.140
  1515 HA          10.205    -9.961    -8.109             99  LEU    0.060
  1516 CB           8.475   -10.404    -6.838             99  LEU   -0.120
  1517 HB2          8.975   -11.079    -6.144             99  LEU    0.060
  1518 HB3          7.475   -10.791    -7.034             99  LEU    0.060
  1519 CG           8.249    -9.037    -6.196             99  LEU   -0.060
  1520 HG           7.707    -8.391    -6.887             99  LEU    0.060
  1521 CD1          7.488    -9.154    -4.912             99  LEU   -0.180
  1522 HD11         8.121    -9.564    -4.125             99  LEU    0.060
  1523 HD12         7.139    -8.176    -4.581             99  LEU    0.060
  1524 HD13         6.622    -9.805    -5.027             99  LEU    0.060
  1525 CD2          9.670    -8.377    -5.838             99  LEU   -0.180
  1526 HD21        10.069    -8.802    -4.917             99  LEU    0.060
  1527 HD22         9.568    -7.302    -5.690             99  LEU    0.060
  1528 HD23        10.394    -8.546    -6.635             99  LEU    0.060
  1529 C            9.311   -11.795    -8.729             99  LEU    0.500
  1530 O            8.341   -12.377    -9.173             99  LEU   -0.500
  1531 N           10.520   -12.359    -8.705            100  ARG   -0.500
  1532 H           11.321   -11.757    -8.577            100  ARG    0.300
  1533 CA          10.789   -13.741    -9.165            100  ARG    0.140
  1534 HA           9.864   -14.242    -9.450            100  ARG    0.060
  1535 CB          11.766   -13.642   -10.328            100  ARG   -0.120
  1536 HB2         12.491   -12.847   -10.155            100  ARG    0.060
  1537 HB3         11.199   -13.295   -11.192            100  ARG    0.060
  1538 CG          12.489   -14.969   -10.759            100  ARG   -0.050
  1539 HG2         13.098   -15.358    -9.943            100  ARG    0.060
  1540 HG3         11.696   -15.668   -11.026            100  ARG    0.060
  1541 CD          13.328   -14.842   -12.053            100  ARG    0.190
  1542 HD2         13.936   -15.734   -12.207            100  ARG    0.060
  1543 HD3         12.623   -14.704   -12.873            100  ARG    0.060
  1544 NE          14.185   -13.673   -12.026            100  ARG   -0.700
  1545 HE          13.705   -12.785   -12.030            100  ARG    0.440
  1546 CZ          15.452   -13.657   -11.667            100  ARG    0.640
  1547 NH1         16.089   -12.515   -11.664            100  ARG   -0.800
  1548 HH11        16.588   -12.213   -12.489            100  ARG    0.460
  1549 HH12        16.381   -12.145   -10.771            100  ARG    0.460
  1550 NH2         16.105   -14.740   -11.325            100  ARG   -0.800
  1551 HH21        16.032   -15.097   -10.383            100  ARG    0.460
  1552 HH22        16.872   -15.051   -11.904            100  ARG    0.460
  1553 C           11.476   -14.478    -8.055            100  ARG    0.500
  1554 O           12.415   -13.919    -7.504            100  ARG   -0.500
  1555 N           10.920   -15.596    -7.632            101  ALA   -0.500
  1556 H            9.959   -15.770    -7.891            101  ALA    0.300
  1557 CA          11.436   -16.347    -6.526            101  ALA    0.140
  1558 HA          11.804   -15.671    -5.754            101  ALA    0.060
  1559 CB          10.337   -17.240    -5.996            101  ALA   -0.180
  1560 HB1         10.237   -18.134    -6.611            101  ALA    0.060
  1561 HB2         10.559   -17.559    -4.978            101  ALA    0.060
  1562 HB3          9.378   -16.721    -5.991            101  ALA    0.060
  1563 C           12.577   -17.209    -7.054            101  ALA    0.500
  1564 O           12.477   -17.687    -8.185            101  ALA   -0.500
  1565 N           13.692   -17.117    -6.410            102  LEU   -0.500
  1566 H           13.687   -16.870    -5.431            102  LEU    0.300
  1567 CA          14.902   -17.757    -6.968            102  LEU    0.140
  1568 HA          14.971   -17.404    -7.997            102  LEU    0.060
  1569 CB          16.192   -17.297    -6.230            102  LEU   -0.120
  1570 HB2         16.258   -17.770    -5.250            102  LEU    0.060
  1571 HB3         16.986   -17.791    -6.789            102  LEU    0.060
  1572 CG          16.671   -15.862    -6.154            102  LEU   -0.060
  1573 HG          15.945   -15.236    -5.634            102  LEU    0.060
  1574 CD1         18.052   -15.692    -5.532            102  LEU   -0.180
  1575 HD11        18.532   -14.787    -5.903            102  LEU    0.060
  1576 HD12        17.978   -15.607    -4.448            102  LEU    0.060
  1577 HD13        18.675   -16.553    -5.772            102  LEU    0.060
  1578 CD2         16.738   -15.350    -7.599            102  LEU   -0.180
  1579 HD21        17.772   -15.177    -7.899            102  LEU    0.060
  1580 HD22        16.201   -14.407    -7.698            102  LEU    0.060
  1581 HD23        16.274   -16.141    -8.188            102  LEU    0.060
  1582 C           14.919   -19.297    -7.051            102  LEU    0.500
  1583 O           15.205   -19.811    -8.141            102  LEU   -0.500
  1584 N           14.497   -20.041    -6.004            103  PRO   -0.140
  1585 CD          13.997   -19.684    -4.685            103  PRO   -0.050
  1586 HD2         14.561   -18.834    -4.300            103  PRO    0.060
  1587 HD3         12.939   -19.427    -4.728            103  PRO    0.060
  1588 CG          14.238   -20.865    -3.879            103  PRO   -0.120
  1589 HG2         13.552   -20.901    -3.033            103  PRO    0.060
  1590 HG3         15.256   -20.870    -3.489            103  PRO    0.060
  1591 CB          14.019   -21.982    -4.758            103  PRO   -0.120
  1592 HB2         12.961   -22.244    -4.791            103  PRO    0.060
  1593 HB3         14.735   -22.752    -4.469            103  PRO    0.060
  1594 CA          14.491   -21.475    -6.119            103  PRO    0.010
  1595 HA          15.510   -21.813    -6.307            103  PRO    0.060
  1596 C           13.593   -22.002    -7.236            103  PRO    0.500
  1597 O           13.947   -22.883    -8.005            103  PRO   -0.500
  1598 N           12.394   -21.481    -7.302            104  THR   -0.500
  1599 H           12.206   -20.611    -6.824            104  THR    0.300
  1600 CA          11.400   -21.971    -8.235            104  THR    0.140
  1601 HA          11.522   -23.051    -8.319            104  THR    0.060
  1602 CB           9.990   -21.659    -7.695            104  THR    0.205
  1603 HB           9.246   -21.813    -8.477            104  THR    0.060
  1604 CG2          9.626   -22.509    -6.506            104  THR   -0.180
  1605 HG21         8.926   -21.982    -5.857            104  THR    0.060
  1606 HG22        10.512   -22.750    -5.918            104  THR    0.060
  1607 HG23         9.144   -23.398    -6.914            104  THR    0.060
  1608 OG1          9.972   -20.333    -7.262            104  THR   -0.683
  1609 HG1         10.289   -19.784    -7.963            104  THR    0.418
  1610 C           11.543   -21.374    -9.627            104  THR    0.500
  1611 O           10.942   -21.841   -10.626            104  THR   -0.500
  1612 N           12.220   -20.250    -9.673            105  GLY   -0.500
  1613 H           12.866   -20.060    -8.920            105  GLY    0.300
  1614 CA          12.347   -19.421   -10.870            105  GLY    0.080
  1615 HA2         13.012   -18.583   -10.662            105  GLY    0.060
  1616 HA3         12.833   -20.015   -11.644            105  GLY    0.060
  1617 C           11.025   -18.896   -11.434            105  GLY    0.500
  1618 O           10.866   -18.542   -12.601            105  GLY   -0.500
  1619 N           10.049   -18.865   -10.529            106  LYS   -0.500
  1620 H           10.120   -19.467    -9.721            106  LYS    0.300
  1621 CA           8.747   -18.438   -10.919            106  LYS    0.140
  1622 HA           8.666   -18.545   -12.001            106  LYS    0.060
  1623 CB           7.682   -19.322   -10.236            106  LYS   -0.120
  1624 HB2          6.741   -18.782   -10.132            106  LYS    0.060
  1625 HB3          8.008   -19.523    -9.215            106  LYS    0.060
  1626 CG           7.458   -20.694   -10.960            106  LYS   -0.120
  1627 HG2          7.296   -20.543   -12.027            106  LYS    0.060
  1628 HG3          8.429   -21.183   -10.877            106  LYS    0.060
  1629 CD           6.433   -21.800   -10.378            106  LYS   -0.120
  1630 HD2          6.659   -22.021    -9.335            106  LYS    0.060
  1631 HD3          6.598   -22.736   -10.912            106  LYS    0.060
  1632 CE           4.943   -21.399   -10.542            106  LYS    0.190
  1633 HE2          4.360   -21.713    -9.676            106  LYS    0.060
  1634 HE3          4.924   -20.310   -10.579            106  LYS    0.060
  1635 NZ           4.274   -21.866   -11.792            106  LYS   -0.300
  1636 HZ1          4.411   -22.861   -11.896            106  LYS    0.330
  1637 HZ2          3.286   -21.664   -11.741            106  LYS    0.330
  1638 HZ3          4.675   -21.387   -12.586            106  LYS    0.330
  1639 C            8.573   -16.930   -10.568            106  LYS    0.500
  1640 O            9.207   -16.424    -9.653            106  LYS   -0.500
  1641 N            7.795   -16.191   -11.349            107  SER   -0.500
  1642 H            7.123   -16.674   -11.928            107  SER    0.300
  1643 CA           7.667   -14.724   -11.270            107  SER    0.140
  1644 HA           8.225   -14.350   -10.412            107  SER    0.060
  1645 CB           8.119   -14.042   -12.552            107  SER    0.145
  1646 HB2          7.564   -14.426   -13.408            107  SER    0.060
  1647 HB3          8.019   -12.976   -12.346            107  SER    0.060
  1648 OG           9.531   -14.381   -12.695            107  SER   -0.683
  1649 HG           9.846   -14.711   -11.867            107  SER    0.418
  1650 C            6.175   -14.305   -11.151            107  SER    0.500
  1651 O            5.310   -15.029   -11.632            107  SER   -0.500
  1652 N            5.935   -13.191   -10.483            108  TYR   -0.500
  1653 H            6.732   -12.605   -10.280            108  TYR    0.300
  1654 CA           4.597   -12.584   -10.262            108  TYR    0.140
  1655 HA           3.934   -12.915   -11.061            108  TYR    0.060
  1656 CB           4.027   -13.004    -8.918            108  TYR   -0.005
  1657 HB2          4.190   -14.068    -8.747            108  TYR    0.060
  1658 HB3          4.580   -12.492    -8.130            108  TYR    0.060
  1659 CG           2.519   -12.669    -8.715            108  TYR   -0.115
  1660 CD1          1.587   -12.987    -9.735            108  TYR   -0.115
  1661 HD1          1.909   -13.583   -10.576            108  TYR    0.115
  1662 CE1          0.239   -12.635    -9.625            108  TYR   -0.115
  1663 HE1         -0.307   -12.397   -10.526            108  TYR    0.115
  1664 CZ          -0.173   -12.067    -8.432            108  TYR    0.150
  1665 OH          -1.497   -11.767    -8.225            108  TYR   -0.585
  1666 HH          -1.761   -11.865    -7.323            108  TYR    0.435
  1667 CE2          0.708   -11.814    -7.389            108  TYR   -0.115
  1668 HE2          0.330   -11.477    -6.435            108  TYR    0.115
  1669 CD2          2.011   -12.177    -7.513            108  TYR   -0.115
  1670 HD2          2.666   -12.094    -6.658            108  TYR    0.115
  1671 C            4.694   -11.042   -10.314            108  TYR    0.500
  1672 O            5.694   -10.462    -9.800            108  TYR   -0.500
  1673 N            3.699   -10.444   -10.939            109  ASN   -0.500
  1674 H            2.976   -11.019   -11.347            109  ASN    0.300
  1675 CA           3.525    -8.956   -11.039            109  ASN    0.140
  1676 HA           4.511    -8.492   -11.053            109  ASN    0.060
  1677 CB           2.959    -8.626   -12.427            109  ASN   -0.120
  1678 HB2          1.961    -9.048   -12.546            109  ASN    0.060
  1679 HB3          2.837    -7.546   -12.509            109  ASN    0.060
  1680 CG           3.857    -9.085   -13.605            109  ASN    0.500
  1681 OD1          5.047    -9.329   -13.493            109  ASN   -0.500
  1682 ND2          3.214    -9.200   -14.739            109  ASN   -0.760
  1683 HD21         2.782    -8.388   -15.156            109  ASN    0.380
  1684 HD22         3.327   -10.040   -15.289            109  ASN    0.380
  1685 C            2.693    -8.366    -9.896            109  ASN    0.500
  1686 O            1.742    -7.627   -10.080            109  ASN   -0.500
  1687 N            3.131    -8.713    -8.667            110  LEU   -0.500
  1688 H            4.106    -8.948    -8.548            110  LEU    0.300
  1689 CA           2.382    -8.286    -7.457            110  LEU    0.140
  1690 HA           1.412    -8.782    -7.445            110  LEU    0.060
  1691 CB           3.199    -8.677    -6.211            110  LEU   -0.120
  1692 HB2          4.233    -8.347    -6.310            110  LEU    0.060
  1693 HB3          3.296    -9.761    -6.265            110  LEU    0.060
  1694 CG           2.680    -8.399    -4.817            110  LEU   -0.060
  1695 HG           2.507    -7.327    -4.720            110  LEU    0.060
  1696 CD1          1.367    -9.137    -4.418            110  LEU   -0.180
  1697 HD11         1.375   -10.162    -4.788            110  LEU    0.060
  1698 HD12         1.262    -9.175    -3.334            110  LEU    0.060
  1699 HD13         0.493    -8.632    -4.828            110  LEU    0.060
  1700 CD2          3.745    -8.781    -3.740            110  LEU   -0.180
  1701 HD21         3.363    -8.585    -2.738            110  LEU    0.060
  1702 HD22         3.992    -9.841    -3.801            110  LEU    0.060
  1703 HD23         4.662    -8.207    -3.874            110  LEU    0.060
  1704 C            2.172    -6.775    -7.395            110  LEU    0.500
  1705 O            3.131    -6.051    -7.411            110  LEU   -0.500
  1706 N            0.927    -6.309    -7.244            111  SER   -0.500
  1707 H            0.154    -6.920    -7.464            111  SER    0.300
  1708 CA           0.624    -4.866    -7.059            111  SER    0.140
  1709 HA           1.181    -4.245    -7.760            111  SER    0.060
  1710 CB          -0.885    -4.654    -7.150            111  SER    0.145
  1711 HB2         -1.126    -3.591    -7.131            111  SER    0.060
  1712 HB3         -1.326    -5.148    -6.284            111  SER    0.060
  1713 OG          -1.439    -5.235    -8.288            111  SER   -0.683
  1714 HG          -1.850    -4.556    -8.802            111  SER    0.418
  1715 C            1.042    -4.585    -5.589            111  SER    0.500
  1716 O            0.647    -5.254    -4.718            111  SER   -0.500
  1717 N            1.813    -3.524    -5.394            112  ILE   -0.500
  1718 H            2.299    -3.123    -6.183            112  ILE    0.300
  1719 CA           2.192    -3.063    -4.062            112  ILE    0.140
  1720 HA           1.539    -3.556    -3.341            112  ILE    0.060
  1721 CB           3.666    -3.441    -3.752            112  ILE   -0.060
  1722 HB           4.297    -2.886    -4.446            112  ILE    0.060
  1723 CG2          4.075    -3.034    -2.343            112  ILE   -0.180
  1724 HG21         5.154    -3.118    -2.217            112  ILE    0.060
  1725 HG22         3.797    -1.999    -2.145            112  ILE    0.060
  1726 HG23         3.547    -3.724    -1.685            112  ILE    0.060
  1727 CG1          3.917    -4.919    -3.992            112  ILE   -0.120
  1728 HG12         3.701    -5.185    -5.027            112  ILE    0.060
  1729 HG13         3.183    -5.476    -3.409            112  ILE    0.060
  1730 CD1          5.340    -5.429    -3.572            112  ILE   -0.180
  1731 HD11         5.400    -6.515    -3.650            112  ILE    0.060
  1732 HD12         5.558    -5.157    -2.539            112  ILE    0.060
  1733 HD13         6.114    -4.999    -4.207            112  ILE    0.060
  1734 C            1.997    -1.560    -3.912            112  ILE    0.500
  1735 O            2.237    -0.717    -4.825            112  ILE   -0.500
  1736 N            1.505    -1.187    -2.720            113  LEU   -0.500
  1737 H            1.320    -1.890    -2.019            113  LEU    0.300
  1738 CA           1.289     0.211    -2.358            113  LEU    0.140
  1739 HA           1.594     0.877    -3.165            113  LEU    0.060
  1740 CB          -0.242     0.414    -1.950            113  LEU   -0.120
  1741 HB2         -0.532    -0.301    -1.180            113  LEU    0.060
  1742 HB3         -0.830     0.102    -2.813            113  LEU    0.060
  1743 CG          -0.704     1.758    -1.607            113  LEU   -0.060
  1744 HG          -0.124     2.166    -0.779            113  LEU    0.060
  1745 CD1         -0.739     2.720    -2.755            113  LEU   -0.180
  1746 HD11        -0.146     3.607    -2.532            113  LEU    0.060
  1747 HD12        -1.761     3.044    -2.954            113  LEU    0.060
  1748 HD13        -0.343     2.264    -3.662            113  LEU    0.060
  1749 CD2         -2.192     1.677    -1.239            113  LEU   -0.180
  1750 HD21        -2.324     1.703    -0.157            113  LEU    0.060
  1751 HD22        -2.630     0.749    -1.606            113  LEU    0.060
  1752 HD23        -2.652     2.533    -1.732            113  LEU    0.060
  1753 C            2.133     0.426    -1.129            113  LEU    0.500
  1754 O            2.159    -0.402    -0.224            113  LEU   -0.500
  1755 N            2.964     1.462    -1.204            114  GLY   -0.500
  1756 H            2.778     2.201    -1.867            114  GLY    0.300
  1757 CA           3.900     1.725    -0.138            114  GLY    0.080
  1758 HA2          4.913     1.524    -0.487            114  GLY    0.060
  1759 HA3          3.700     1.038     0.684            114  GLY    0.060
  1760 C            3.816     3.160     0.384            114  GLY    0.500
  1761 O            3.287     4.078    -0.300            114  GLY   -0.500
  1762 N            4.230     3.313     1.632            115  VAL   -0.500
  1763 H            4.126     2.513     2.240            115  VAL    0.300
  1764 CA           4.250     4.603     2.314            115  VAL    0.140
  1765 HA           4.079     5.412     1.604            115  VAL    0.060
  1766 CB           3.183     4.593     3.444            115  VAL   -0.060
  1767 HB           2.212     4.661     2.954            115  VAL    0.060
  1768 CG1          3.177     3.274     4.289            115  VAL   -0.180
  1769 HG11         4.155     2.794     4.260            115  VAL    0.060
  1770 HG12         2.942     3.486     5.332            115  VAL    0.060
  1771 HG13         2.438     2.568     3.909            115  VAL    0.060
  1772 CG2          3.253     5.777     4.488            115  VAL   -0.180
  1773 HG21         2.678     5.537     5.382            115  VAL    0.060
  1774 HG22         2.839     6.691     4.062            115  VAL    0.060
  1775 HG23         4.282     5.976     4.786            115  VAL    0.060
  1776 C            5.649     4.693     2.897            115  VAL    0.500
  1777 O            6.261     3.729     3.217            115  VAL   -0.500
  1778 N            6.124     5.948     2.965            116  PHE   -0.500
  1779 H            5.553     6.707     2.620            116  PHE    0.300
  1780 CA           7.492     6.278     3.454            116  PHE    0.140
  1781 HA           7.870     5.470     4.081            116  PHE    0.060
  1782 CB           8.526     6.552     2.347            116  PHE   -0.005
  1783 HB2          9.540     6.495     2.743            116  PHE    0.060
  1784 HB3          8.403     7.579     2.003            116  PHE    0.060
  1785 CG           8.404     5.647     1.125            116  PHE   -0.115
  1786 CD1          7.384     5.863     0.171            116  PHE   -0.115
  1787 HD1          6.585     6.543     0.427            116  PHE    0.115
  1788 CE1          7.181     5.007    -0.878            116  PHE   -0.115
  1789 HE1          6.207     4.978    -1.344            116  PHE    0.115
  1790 CZ           8.005     3.938    -1.031            116  PHE   -0.115
  1791 HZ           7.790     3.199    -1.789            116  PHE    0.115
  1792 CE2          9.071     3.730    -0.137            116  PHE   -0.115
  1793 HE2          9.562     2.768    -0.128            116  PHE    0.115
  1794 CD2          9.259     4.577     0.930            116  PHE   -0.115
  1795 HD2          9.814     4.211     1.781            116  PHE    0.115
  1796 C            7.369     7.563     4.310            116  PHE    0.500
  1797 O            6.726     8.577     3.898            116  PHE   -0.500
  1798 N            7.997     7.589     5.447            117  GLN   -0.500
  1799 H            8.594     6.816     5.706            117  GLN    0.300
  1800 CA           8.056     8.796     6.242            117  GLN    0.140
  1801 HA           7.344     9.535     5.875            117  GLN    0.060
  1802 CB           7.835     8.474     7.708            117  GLN   -0.120
  1803 HB2          8.150     9.307     8.337            117  GLN    0.060
  1804 HB3          8.465     7.629     7.987            117  GLN    0.060
  1805 CG           6.423     8.131     7.968            117  GLN   -0.120
  1806 HG2          5.828     9.032     8.116            117  GLN    0.060
  1807 HG3          6.012     7.652     7.079            117  GLN    0.060
  1808 CD           6.206     7.180     9.133            117  GLN    0.500
  1809 OE1          6.785     6.147     9.088            117  GLN   -0.500
  1810 NE2          5.401     7.536    10.121            117  GLN   -0.760
  1811 HE21         5.442     7.046    11.003            117  GLN    0.380
  1812 HE22         4.943     8.435    10.079            117  GLN    0.380
  1813 C            9.487     9.238     5.958            117  GLN    0.500
  1814 O           10.394     8.396     5.820            117  GLN   -0.500
  1815 N            9.692    10.567     5.904            118  LEU   -0.500
  1816 H            8.976    11.196     6.237            118  LEU    0.300
  1817 CA          11.009    11.098     5.671            118  LEU    0.140
  1818 HA          11.736    10.300     5.820            118  LEU    0.060
  1819 CB          11.180    11.630     4.231            118  LEU   -0.120
  1820 HB2         11.997    12.349     4.182            118  LEU    0.060
  1821 HB3         10.257    12.168     4.017            118  LEU    0.060
  1822 CG          11.359    10.522     3.154            118  LEU   -0.060
  1823 HG          11.744     9.624     3.638            118  LEU    0.060
  1824 CD1         10.028    10.163     2.424            118  LEU   -0.180
  1825 HD11         9.209    10.779     2.794            118  LEU    0.060
  1826 HD12         9.764     9.121     2.607            118  LEU    0.060
  1827 HD13        10.114    10.312     1.348            118  LEU    0.060
  1828 CD2         12.350    10.974     2.120            118  LEU   -0.180
  1829 HD21        12.193    12.023     1.870            118  LEU    0.060
  1830 HD22        13.369    10.870     2.493            118  LEU    0.060
  1831 HD23        12.204    10.326     1.256            118  LEU    0.060
  1832 C           11.288    12.221     6.645            118  LEU    0.500
  1833 O           10.346    12.985     6.982            118  LEU   -0.500
  1834 N           12.554    12.469     6.952            119  THR   -0.500
  1835 H           13.192    11.689     7.018            119  THR    0.300
  1836 CA          12.995    13.744     7.550            119  THR    0.140
  1837 HA          12.276    14.507     7.250            119  THR    0.060
  1838 CB          13.105    13.755     9.160            119  THR    0.205
  1839 HB          12.415    12.990     9.517            119  THR    0.060
  1840 CG2         14.522    13.364     9.718            119  THR   -0.180
  1841 HG21        14.483    13.210    10.796            119  THR    0.060
  1842 HG22        15.245    14.156     9.521            119  THR    0.060
  1843 HG23        14.886    12.447     9.256            119  THR    0.060
  1844 OG1         12.695    15.007     9.687            119  THR   -0.683
  1845 HG1         11.754    15.066     9.621            119  THR    0.418
  1846 C           14.332    14.075     6.855            119  THR    0.500
  1847 O           15.150    13.181     6.602            119  THR   -0.500
  1848 N           14.570    15.365     6.523            120  ASP   -0.500
  1849 H           13.922    16.072     6.841            120  ASP    0.300
  1850 CA          15.802    15.826     5.878            120  ASP    0.140
  1851 HA          15.733    16.906     5.744            120  ASP    0.060
  1852 CB          16.971    15.658     6.880            120  ASP   -0.220
  1853 HB2         17.048    14.622     7.210            120  ASP    0.060
  1854 HB3         17.906    15.872     6.362            120  ASP    0.060
  1855 CG          16.905    16.578     8.099            120  ASP    0.700
  1856 OD1         17.206    17.846     7.946            120  ASP   -0.800
  1857 OD2         16.654    16.142     9.221            120  ASP   -0.800
  1858 C           16.084    15.135     4.500            120  ASP    0.500
  1859 O           17.243    15.031     4.056            120  ASP   -0.500
  1860 N           15.079    14.560     3.844            121  GLY   -0.500
  1861 H           14.198    14.443     4.323            121  GLY    0.300
  1862 CA          15.259    13.795     2.623            121  GLY    0.080
  1863 HA2         14.309    13.729     2.092            121  GLY    0.060
  1864 HA3         15.983    14.318     1.997            121  GLY    0.060
  1865 C           15.804    12.393     2.864            121  GLY    0.500
  1866 O           16.062    11.636     1.958            121  GLY   -0.500
  1867 N           15.899    11.986     4.141            122  LYS   -0.500
  1868 H           15.396    12.509     4.843            122  LYS    0.300
  1869 CA          16.290    10.611     4.488            122  LYS    0.140
  1870 HA          16.654    10.104     3.594            122  LYS    0.060
  1871 CB          17.407    10.689     5.560            122  LYS   -0.120
  1872 HB2         17.044    11.188     6.458            122  LYS    0.060
  1873 HB3         17.643     9.673     5.877            122  LYS    0.060
  1874 CG          18.685    11.336     5.071            122  LYS   -0.120
  1875 HG2         18.511    12.379     4.807            122  LYS    0.060
  1876 HG3         19.403    11.356     5.891            122  LYS    0.060
  1877 CD          19.300    10.582     3.903            122  LYS   -0.120
  1878 HD2         19.269     9.507     4.080            122  LYS    0.060
  1879 HD3         18.676    10.795     3.035            122  LYS    0.060
  1880 CE          20.693    11.015     3.461            122  LYS    0.190
  1881 HE2         20.669    12.023     3.047            122  LYS    0.060
  1882 HE3         21.347    11.014     4.333            122  LYS    0.060
  1883 NZ          21.244    10.046     2.412            122  LYS   -0.300
  1884 HZ1         22.253    10.095     2.405            122  LYS    0.330
  1885 HZ2         20.954     9.105     2.637            122  LYS    0.330
  1886 HZ3         20.889    10.299     1.501            122  LYS    0.330
  1887 C           15.068     9.879     5.018            122  LYS    0.500
  1888 O           14.292    10.431     5.721            122  LYS   -0.500
  1889 N           14.900     8.626     4.694            123  ILE   -0.500
  1890 H           15.725     8.055     4.575            123  ILE    0.300
  1891 CA          13.651     7.907     5.044            123  ILE    0.140
  1892 HA          12.816     8.575     4.832            123  ILE    0.060
  1893 CB          13.491     6.643     4.100            123  ILE   -0.060
  1894 HB          14.297     5.944     4.326            123  ILE    0.060
  1895 CG2         12.161     5.939     4.366            123  ILE   -0.180
  1896 HG21        11.604     5.805     3.439            123  ILE    0.060
  1897 HG22        11.543     6.528     5.043            123  ILE    0.060
  1898 HG23        12.319     4.958     4.814            123  ILE    0.060
  1899 CG1         13.620     7.069     2.613            123  ILE   -0.120
  1900 HG12        14.542     7.627     2.450            123  ILE    0.060
  1901 HG13        12.835     7.802     2.424            123  ILE    0.060
  1902 CD1         13.455     5.928     1.528            123  ILE   -0.180
  1903 HD11        12.420     5.590     1.478            123  ILE    0.060
  1904 HD12        13.732     6.295     0.540            123  ILE    0.060
  1905 HD13        14.083     5.069     1.762            123  ILE    0.060
  1906 C           13.642     7.496     6.537            123  ILE    0.500
  1907 O           14.402     6.600     6.907            123  ILE   -0.500
  1908 N           12.794     8.140     7.344            124  THR   -0.500
  1909 H           12.256     8.914     6.982            124  THR    0.300
  1910 CA          12.582     7.744     8.758            124  THR    0.140
  1911 HA          13.545     7.532     9.222            124  THR    0.060
  1912 CB          11.863     8.936     9.496            124  THR    0.205
  1913 HB          11.167     8.547    10.239            124  THR    0.060
  1914 CG2         12.842     9.885    10.156            124  THR   -0.180
  1915 HG21        13.499     9.346    10.839            124  THR    0.060
  1916 HG22        12.313    10.644    10.733            124  THR    0.060
  1917 HG23        13.461    10.388     9.413            124  THR    0.060
  1918 OG1         11.129     9.657     8.518            124  THR   -0.683
  1919 HG1         11.489    10.528     8.455            124  THR    0.418
  1920 C           11.631     6.557     8.990            124  THR    0.500
  1921 O           11.485     6.126    10.151            124  THR   -0.500
  1922 N           11.040     6.079     7.947            125  GLY   -0.500
  1923 H           11.429     6.295     7.040            125  GLY    0.300
  1924 CA          10.267     4.854     8.074            125  GLY    0.080
  1925 HA2          9.478     4.997     8.812            125  GLY    0.060
  1926 HA3         10.921     4.072     8.460            125  GLY    0.060
  1927 C            9.652     4.368     6.760            125  GLY    0.500
  1928 O            9.176     5.230     6.016            125  GLY   -0.500
  1929 N            9.552     3.066     6.475            126  TRP   -0.500
  1930 H           10.117     2.414     6.999            126  TRP    0.300
  1931 CA           8.973     2.593     5.221            126  TRP    0.140
  1932 HA           8.323     3.350     4.781            126  TRP    0.060
  1933 CB          10.092     2.326     4.176            126  TRP   -0.120
  1934 HB2         10.536     3.263     3.840            126  TRP    0.060
  1935 HB3         10.901     1.799     4.681            126  TRP    0.060
  1936 CG           9.717     1.487     2.977            126  TRP    0.075
  1937 CD1          8.597     1.569     2.205            126  TRP   -0.115
  1938 HD1          8.111     2.522     2.059            126  TRP    0.115
  1939 NE1          8.617     0.622     1.229            126  TRP   -0.570
  1940 HE1          7.762     0.157     0.960            126  TRP    0.420
  1941 CE2          9.845     0.014     1.187            126  TRP    0.130
  1942 CZ2         10.363    -0.988     0.358            126  TRP   -0.115
  1943 HZ2          9.993    -1.101    -0.650            126  TRP    0.115
  1944 CH2         11.518    -1.564     0.718            126  TRP   -0.115
  1945 HH2         12.062    -2.104    -0.043            126  TRP    0.115
  1946 CZ3         12.237    -1.150     1.842            126  TRP   -0.115
  1947 HZ3         12.893    -1.889     2.277            126  TRP    0.115
  1948 CE3         11.720    -0.166     2.733            126  TRP   -0.115
  1949 HE3         12.079    -0.122     3.751            126  TRP    0.115
  1950 CD2         10.497     0.423     2.402            126  TRP   -0.055
  1951 C            8.159     1.303     5.452            126  TRP    0.500
  1952 O            8.625     0.492     6.189            126  TRP   -0.500
  1953 N            6.956     1.212     4.851            127  ARG   -0.500
  1954 H            6.762     1.841     4.085            127  ARG    0.300
  1955 CA           6.026     0.046     5.010            127  ARG    0.140
  1956 HA           6.588    -0.845     5.291            127  ARG    0.060
  1957 CB           4.934     0.360     6.034            127  ARG   -0.120
  1958 HB2          4.370     1.245     5.738            127  ARG    0.060
  1959 HB3          4.209    -0.454     6.012            127  ARG    0.060
  1960 CG           5.437     0.495     7.446            127  ARG   -0.050
  1961 HG2          5.894    -0.436     7.782            127  ARG    0.060
  1962 HG3          6.247     1.225     7.449            127  ARG    0.060
  1963 CD           4.325     0.982     8.482            127  ARG    0.190
  1964 HD2          3.445     0.341     8.430            127  ARG    0.060
  1965 HD3          4.710     0.909     9.499            127  ARG    0.060
  1966 NE           3.935     2.365     8.231            127  ARG   -0.700
  1967 HE           2.941     2.489     8.104            127  ARG    0.440
  1968 CZ           4.654     3.486     8.450            127  ARG    0.640
  1969 NH1          4.124     4.638     8.212            127  ARG   -0.800
  1970 HH11         3.893     5.256     8.977            127  ARG    0.460
  1971 HH12         3.897     4.903     7.264            127  ARG    0.460
  1972 NH2          5.870     3.402     8.953            127  ARG   -0.800
  1973 HH21         6.047     2.806     9.749            127  ARG    0.460
  1974 HH22         6.599     4.010     8.609            127  ARG    0.460
  1975 C            5.396    -0.147     3.662            127  ARG    0.500
  1976 O            5.005     0.804     3.014            127  ARG   -0.500
  1977 N            5.347    -1.419     3.253            128  ASP   -0.500
  1978 H            5.879    -2.124     3.742            128  ASP    0.300
  1979 CA           4.769    -1.762     1.951            128  ASP    0.140
  1980 HA           4.372    -0.873     1.461            128  ASP    0.060
  1981 CB           5.784    -2.499     1.061            128  ASP   -0.220
  1982 HB2          5.292    -3.282     0.484            128  ASP    0.060
  1983 HB3          6.487    -2.957     1.756            128  ASP    0.060
  1984 CG           6.584    -1.632     0.145            128  ASP    0.700
  1985 OD1          6.201    -0.469    -0.103            128  ASP   -0.800
  1986 OD2          7.578    -2.126    -0.513            128  ASP   -0.800
  1987 C            3.631    -2.744     2.292            128  ASP    0.500
  1988 O            3.797    -3.620     3.106            128  ASP   -0.500
  1989 N            2.512    -2.557     1.571            129  TYR   -0.500
  1990 H            2.629    -2.141     0.658            129  TYR    0.300
  1991 CA           1.290    -3.332     1.768            129  TYR    0.140
  1992 HA           1.426    -4.070     2.558            129  TYR    0.060
  1993 CB           0.065    -2.416     2.042            129  TYR   -0.005
  1994 HB2          0.020    -1.604     1.316            129  TYR    0.060
  1995 HB3         -0.805    -3.066     1.950            129  TYR    0.060
  1996 CG           0.060    -1.840     3.447            129  TYR   -0.115
  1997 CD1          0.934    -0.860     3.845            129  TYR   -0.115
  1998 HD1          1.913    -0.853     3.390            129  TYR    0.115
  1999 CE1          0.800    -0.195     5.126            129  TYR   -0.115
  2000 HE1          1.251     0.773     5.285            129  TYR    0.115
  2001 CZ          -0.181    -0.645     5.968            129  TYR    0.150
  2002 OH          -0.334    -0.020     7.210            129  TYR   -0.585
  2003 HH           0.220     0.739     7.311            129  TYR    0.435
  2004 CE2         -1.007    -1.702     5.655            129  TYR   -0.115
  2005 HE2         -1.532    -2.223     6.442            129  TYR    0.115
  2006 CD2         -0.879    -2.298     4.387            129  TYR   -0.115
  2007 HD2         -1.740    -2.821     3.998            129  TYR    0.115
  2008 C            0.936    -4.015     0.453            129  TYR    0.500
  2009 O            0.986    -3.471    -0.658            129  TYR   -0.500
  2010 N            0.653    -5.329     0.638            130  PHE   -0.500
  2011 H            0.424    -5.641     1.571            130  PHE    0.300
  2012 CA           0.416    -6.300    -0.480            130  PHE    0.140
  2013 HA          -0.349    -5.919    -1.157            130  PHE    0.060
  2014 CB           1.756    -6.586    -1.235            130  PHE   -0.005
  2015 HB2          2.072    -5.710    -1.802            130  PHE    0.060
  2016 HB3          1.578    -7.365    -1.976            130  PHE    0.060
  2017 CG           2.924    -7.066    -0.331            130  PHE   -0.115
  2018 CD1          3.778    -6.097     0.232            130  PHE   -0.115
  2019 HD1          3.494    -5.056     0.188            130  PHE    0.115
  2020 CE1          4.809    -6.470     1.037            130  PHE   -0.115
  2021 HE1          5.571    -5.753     1.304            130  PHE    0.115
  2022 CZ           5.031    -7.825     1.239            130  PHE   -0.115
  2023 HZ           5.870    -8.131     1.846            130  PHE    0.115
  2024 CE2          4.267    -8.786     0.634            130  PHE   -0.115
  2025 HE2          4.668    -9.782     0.515            130  PHE    0.115
  2026 CD2          3.153    -8.405    -0.118            130  PHE   -0.115
  2027 HD2          2.634    -9.139    -0.717            130  PHE    0.115
  2028 C           -0.047    -7.570     0.159            130  PHE    0.500
  2029 O            0.138    -7.711     1.318            130  PHE   -0.500
  2030 N           -0.586    -8.489    -0.573            131  ASP   -0.500
  2031 H           -0.938    -8.220    -1.481            131  ASP    0.300
  2032 CA          -0.981    -9.823    -0.082            131  ASP    0.140
  2033 HA          -1.136    -9.766     0.995            131  ASP    0.060
  2034 CB          -2.257   -10.302    -0.767            131  ASP   -0.220
  2035 HB2         -2.083   -10.470    -1.830            131  ASP    0.060
  2036 HB3         -3.018    -9.524    -0.698            131  ASP    0.060
  2037 CG          -2.811   -11.554    -0.146            131  ASP    0.700
  2038 OD1         -3.770   -11.462     0.688            131  ASP   -0.800
  2039 OD2         -2.375   -12.674    -0.590            131  ASP   -0.800
  2040 C            0.153   -10.804    -0.362            131  ASP    0.500
  2041 O            0.548   -10.922    -1.531            131  ASP   -0.500
  2042 N            0.594   -11.461     0.684            132  LEU   -0.500
  2043 H            0.472   -11.038     1.593            132  LEU    0.300
  2044 CA           1.720   -12.357     0.523            132  LEU    0.140
  2045 HA           2.374   -11.918    -0.230            132  LEU    0.060
  2046 CB           2.508   -12.488     1.831            132  LEU   -0.120
  2047 HB2          1.849   -12.767     2.653            132  LEU    0.060
  2048 HB3          2.824   -11.479     2.097            132  LEU    0.060
  2049 CG           3.776   -13.348     1.835            132  LEU   -0.060
  2050 HG           3.496   -14.385     1.651            132  LEU    0.060
  2051 CD1          4.839   -12.913     0.763            132  LEU   -0.180
  2052 HD11         4.806   -11.835     0.602            132  LEU    0.060
  2053 HD12         5.846   -13.171     1.092            132  LEU    0.060
  2054 HD13         4.568   -13.459    -0.140            132  LEU    0.060
  2055 CD2          4.456   -13.253     3.218            132  LEU   -0.180
  2056 HD21         4.731   -12.222     3.442            132  LEU    0.060
  2057 HD22         3.781   -13.596     4.002            132  LEU    0.060
  2058 HD23         5.359   -13.863     3.254            132  LEU    0.060
  2059 C            1.242   -13.702    -0.025            132  LEU    0.500
  2060 O            1.970   -14.392    -0.736            132  LEU   -0.500
  2061 N            0.013   -14.095     0.302            133  ARG   -0.500
  2062 H           -0.430   -13.677     1.108            133  ARG    0.300
  2063 CA          -0.493   -15.426    -0.148            133  ARG    0.140
  2064 HA           0.204   -16.201     0.170            133  ARG    0.060
  2065 CB          -1.825   -15.753     0.482            133  ARG   -0.120
  2066 HB2         -2.373   -14.841     0.719            133  ARG    0.060
  2067 HB3         -1.626   -16.211     1.451            133  ARG    0.060
  2068 CG          -2.741   -16.759    -0.344            133  ARG   -0.050
  2069 HG2         -2.870   -16.410    -1.369            133  ARG    0.060
  2070 HG3         -2.228   -17.720    -0.300            133  ARG    0.060
  2071 CD          -4.120   -17.039     0.318            133  ARG    0.190
  2072 HD2         -4.612   -17.885    -0.162            133  ARG    0.060
  2073 HD3         -3.914   -17.287     1.359            133  ARG    0.060
  2074 NE          -5.017   -15.869     0.292            133  ARG   -0.700
  2075 HE          -4.797   -15.110    -0.337            133  ARG    0.440
  2076 CZ          -6.110   -15.803     1.063            133  ARG    0.640
  2077 NH1         -6.419   -16.796     1.827            133  ARG   -0.800
  2078 HH11        -7.026   -16.652     2.621            133  ARG    0.460
  2079 HH12        -5.824   -17.612     1.821            133  ARG    0.460
  2080 NH2         -6.885   -14.700     1.046            133  ARG   -0.800
  2081 HH21        -7.250   -14.353     0.171            133  ARG    0.460
  2082 HH22        -6.784   -14.041     1.804            133  ARG    0.460
  2083 C           -0.599   -15.447    -1.646            133  ARG    0.500
  2084 O           -0.271   -16.478    -2.282            133  ARG   -0.500
  2085 N           -1.010   -14.342    -2.212            134  GLU   -0.500
  2086 H           -1.708   -13.794    -1.730            134  GLU    0.300
  2087 CA          -0.980   -14.239    -3.663            134  GLU    0.140
  2088 HA          -1.670   -14.976    -4.075            134  GLU    0.060
  2089 CB          -1.365   -12.820    -4.162            134  GLU   -0.120
  2090 HB2         -0.872   -12.054    -3.563            134  GLU    0.060
  2091 HB3         -1.005   -12.766    -5.189            134  GLU    0.060
  2092 CG          -2.850   -12.535    -4.276            134  GLU   -0.220
  2093 HG2         -3.228   -12.090    -3.356            134  GLU    0.060
  2094 HG3         -3.396   -13.466    -4.426            134  GLU    0.060
  2095 CD          -3.134   -11.627    -5.419            134  GLU    0.700
  2096 OE1         -2.365   -10.776    -5.802            134  GLU   -0.800
  2097 OE2         -4.279   -11.733    -5.930            134  GLU   -0.800
  2098 C            0.439   -14.519    -4.229            134  GLU    0.500
  2099 O            0.575   -15.258    -5.160            134  GLU   -0.500
  2100 N            1.446   -13.945    -3.625            135  PHE   -0.500
  2101 H            1.289   -13.057    -3.170            135  PHE    0.300
  2102 CA           2.822   -14.223    -4.122            135  PHE    0.140
  2103 HA           2.835   -13.979    -5.184            135  PHE    0.060
  2104 CB           3.866   -13.333    -3.401            135  PHE   -0.005
  2105 HB2          3.616   -12.278    -3.512            135  PHE    0.060
  2106 HB3          3.771   -13.595    -2.347            135  PHE    0.060
  2107 CG           5.282   -13.547    -3.772            135  PHE   -0.115
  2108 CD1          5.729   -13.241    -5.052            135  PHE   -0.115
  2109 HD1          5.000   -13.005    -5.813            135  PHE    0.115
  2110 CE1          7.074   -13.396    -5.431            135  PHE   -0.115
  2111 HE1          7.468   -12.841    -6.269            135  PHE    0.115
  2112 CZ           7.930   -13.891    -4.465            135  PHE   -0.115
  2113 HZ           8.875   -14.292    -4.801            135  PHE    0.115
  2114 CE2          7.546   -14.200    -3.186            135  PHE   -0.115
  2115 HE2          8.163   -14.858    -2.592            135  PHE    0.115
  2116 CD2          6.203   -13.995    -2.817            135  PHE   -0.115
  2117 HD2          5.823   -14.567    -1.983            135  PHE    0.115
  2118 C            3.182   -15.684    -3.997            135  PHE    0.500
  2119 O            3.532   -16.258    -4.966            135  PHE   -0.500
  2120 N            2.962   -16.260    -2.839            136  GLU   -0.500
  2121 H            2.550   -15.708    -2.100            136  GLU    0.300
  2122 CA           3.284   -17.667    -2.525            136  GLU    0.140
  2123 HA           4.365   -17.767    -2.622            136  GLU    0.060
  2124 CB           2.896   -17.996    -1.059            136  GLU   -0.120
  2125 HB2          2.877   -19.074    -0.898            136  GLU    0.060
  2126 HB3          1.864   -17.678    -0.910            136  GLU    0.060
  2127 CG           3.778   -17.288     0.035            136  GLU   -0.220
  2128 HG2          3.678   -16.205    -0.033            136  GLU    0.060
  2129 HG3          4.829   -17.516    -0.140            136  GLU    0.060
  2130 CD           3.418   -17.742     1.439            136  GLU    0.700
  2131 OE1          2.307   -18.357     1.582            136  GLU   -0.800
  2132 OE2          4.257   -17.607     2.410            136  GLU   -0.800
  2133 C            2.672   -18.729    -3.406            136  GLU    0.500
  2134 O            3.219   -19.830    -3.569            136  GLU   -0.500
  2135 N            1.483   -18.415    -3.950            137  GLU   -0.500
  2136 H            1.487   -17.611    -4.561            137  GLU    0.300
  2137 CA           0.701   -19.351    -4.749            137  GLU    0.140
  2138 HA           0.934   -20.373    -4.449            137  GLU    0.060
  2139 CB          -0.826   -19.094    -4.689            137  GLU   -0.120
  2140 HB2         -1.051   -18.054    -4.926            137  GLU    0.060
  2141 HB3         -1.291   -19.668    -5.490            137  GLU    0.060
  2142 CG          -1.503   -19.511    -3.351            137  GLU   -0.220
  2143 HG2         -1.381   -20.579    -3.173            137  GLU    0.060
  2144 HG3         -0.995   -18.991    -2.539            137  GLU    0.060
  2145 CD          -3.025   -19.140    -3.289            137  GLU    0.700
  2146 OE1         -3.471   -18.030    -3.624            137  GLU   -0.800
  2147 OE2         -3.815   -20.071    -2.881            137  GLU   -0.800
  2148 C            1.129   -19.130    -6.259            137  GLU    0.500
  2149 O            1.447   -20.060    -6.972            137  GLU   -0.500
  2150 N            1.269   -17.882    -6.669            138  ALA   -0.500
  2151 H            0.733   -17.148    -6.228            138  ALA    0.300
  2152 CA           1.780   -17.651    -8.029            138  ALA    0.140
  2153 HA           1.094   -18.121    -8.734            138  ALA    0.060
  2154 CB           1.804   -16.115    -8.270            138  ALA   -0.180
  2155 HB1          2.726   -15.680    -7.885            138  ALA    0.060
  2156 HB2          0.969   -15.631    -7.764            138  ALA    0.060
  2157 HB3          1.739   -16.000    -9.352            138  ALA    0.060
  2158 C            3.186   -18.207    -8.289            138  ALA    0.500
  2159 O            3.432   -18.725    -9.347            138  ALA   -0.500
  2160 N            4.078   -18.101    -7.324            139  VAL   -0.500
  2161 H            3.851   -17.546    -6.511            139  VAL    0.300
  2162 CA           5.458   -18.512    -7.487            139  VAL    0.140
  2163 HA           5.580   -18.665    -8.559            139  VAL    0.060
  2164 CB           6.499   -17.381    -7.059            139  VAL   -0.060
  2165 HB           7.477   -17.684    -7.433            139  VAL    0.060
  2166 CG1          6.142   -15.990    -7.742            139  VAL   -0.180
  2167 HG11         6.609   -15.913    -8.724            139  VAL    0.060
  2168 HG12         6.502   -15.159    -7.136            139  VAL    0.060
  2169 HG13         5.058   -15.906    -7.817            139  VAL    0.060
  2170 CG2          6.616   -17.248    -5.566            139  VAL   -0.180
  2171 HG21         6.494   -18.217    -5.082            139  VAL    0.060
  2172 HG22         5.845   -16.583    -5.177            139  VAL    0.060
  2173 HG23         7.589   -16.845    -5.283            139  VAL    0.060
  2174 C            5.933   -19.842    -6.830            139  VAL    0.500
  2175 O            7.097   -20.251    -6.927            139  VAL   -0.500
  2176 N            4.918   -20.552    -6.257            140  ASP   -0.500
  2177 H            4.009   -20.121    -6.170            140  ASP    0.300
  2178 CA           5.137   -21.842    -5.559            140  ASP    0.140
  2179 HA           4.203   -22.044    -5.034            140  ASP    0.060
  2180 CB           5.352   -23.034    -6.578            140  ASP   -0.220
  2181 HB2          6.130   -22.789    -7.301            140  ASP    0.060
  2182 HB3          5.680   -23.910    -6.018            140  ASP    0.060
  2183 CG           4.017   -23.369    -7.337            140  ASP    0.700
  2184 OD1          2.937   -23.057    -6.769            140  ASP   -0.800
  2185 OD2          4.083   -24.097    -8.323            140  ASP   -0.800
  2186 C            6.251   -21.754    -4.411            140  ASP    0.500
  2187 O            6.971   -22.755    -4.274            140  ASP   -0.500
  2188 N            6.371   -20.685    -3.724            141  LEU   -0.500
  2189 H            6.022   -19.832    -4.138            141  LEU    0.300
  2190 CA           7.386   -20.527    -2.673            141  LEU    0.140
  2191 HA           7.810   -21.512    -2.475            141  LEU    0.060
  2192 CB           8.513   -19.585    -3.182            141  LEU   -0.120
  2193 HB2          8.143   -18.565    -3.286            141  LEU    0.060
  2194 HB3          8.785   -19.894    -4.191            141  LEU    0.060
  2195 CG           9.798   -19.618    -2.300            141  LEU   -0.060
  2196 HG           9.490   -19.703    -1.258            141  LEU    0.060
  2197 CD1         10.542   -20.839    -2.665            141  LEU   -0.180
  2198 HD11        10.948   -21.322    -1.776            141  LEU    0.060
  2199 HD12        11.377   -20.598    -3.323            141  LEU    0.060
  2200 HD13         9.898   -21.553    -3.178            141  LEU    0.060
  2201 CD2         10.712   -18.442    -2.417            141  LEU   -0.180
  2202 HD21        11.455   -18.607    -3.198            141  LEU    0.060
  2203 HD22        10.152   -17.543    -2.676            141  LEU    0.060
  2204 HD23        11.218   -18.298    -1.463            141  LEU    0.060
  2205 C            6.843   -19.988    -1.359            141  LEU    0.500
  2206 O            6.715   -18.808    -1.218            141  LEU   -0.500
  2207 N            6.542   -20.827    -0.393            142  PRO   -0.140
  2208 CD           6.493   -22.269    -0.253            142  PRO   -0.050
  2209 HD2          6.078   -22.709    -1.160            142  PRO    0.060
  2210 HD3          7.483   -22.682    -0.059            142  PRO    0.060
  2211 CG           5.577   -22.450     0.879            142  PRO   -0.120
  2212 HG2          5.716   -23.431     1.333            142  PRO    0.060
  2213 HG3          4.538   -22.367     0.559            142  PRO    0.060
  2214 CB           5.925   -21.383     1.832            142  PRO   -0.120
  2215 HB2          6.803   -21.660     2.416            142  PRO    0.060
  2216 HB3          5.100   -21.159     2.508            142  PRO    0.060
  2217 CA           6.244   -20.189     0.898            142  PRO    0.010
  2218 HA           5.287   -19.666     0.908            142  PRO    0.060
  2219 C            7.377   -19.401     1.540            142  PRO    0.500
  2220 O            8.521   -19.819     1.316            142  PRO   -0.500
  2221 N            7.092   -18.350     2.304            143  LEU   -0.500
  2222 H            6.122   -18.122     2.470            143  LEU    0.300
  2223 CA           8.110   -17.482     2.940            143  LEU    0.140
  2224 HA           9.078   -17.978     3.015            143  LEU    0.060
  2225 CB           8.373   -16.302     1.958            143  LEU   -0.120
  2226 HB2          7.434   -15.846     1.646            143  LEU    0.060
  2227 HB3          8.731   -16.784     1.048            143  LEU    0.060
  2228 CG           9.418   -15.239     2.236            143  LEU   -0.060
  2229 HG           9.202   -14.800     3.210            143  LEU    0.060
  2230 CD1         10.767   -15.840     2.301            143  LEU   -0.180
  2231 HD11        10.769   -16.832     1.848            143  LEU    0.060
  2232 HD12        11.091   -15.946     3.336            143  LEU    0.060
  2233 HD13        11.497   -15.224     1.776            143  LEU    0.060
  2234 CD2          9.254   -14.146     1.184            143  LEU   -0.180
  2235 HD21         9.495   -14.527     0.192            143  LEU    0.060
  2236 HD22         9.923   -13.311     1.391            143  LEU    0.060
  2237 HD23         8.210   -13.840     1.255            143  LEU    0.060
  2238 C            7.643   -16.896     4.262            143  LEU    0.500
  2239 O            8.447   -16.462     5.101            143  LEU   -0.500
  2240 N            6.366   -16.854     4.471            144  ARG   -0.500
  2241 H            5.736   -17.025     3.700            144  ARG    0.300
  2242 CA           5.797   -16.260     5.718            144  ARG    0.140
  2243 HA           6.161   -15.241     5.850            144  ARG    0.060
  2244 CB           4.262   -16.299     5.603            144  ARG   -0.120
  2245 HB2          3.917   -17.312     5.397            144  ARG    0.060
  2246 HB3          3.968   -15.712     4.733            144  ARG    0.060
  2247 CG           3.561   -15.734     6.816            144  ARG   -0.050
  2248 HG2          3.652   -16.411     7.666            144  ARG    0.060
  2249 HG3          4.096   -14.835     7.121            144  ARG    0.060
  2250 CD           2.125   -15.359     6.586            144  ARG    0.190
  2251 HD2          1.994   -14.921     5.596            144  ARG    0.060
  2252 HD3          1.795   -14.625     7.321            144  ARG    0.060
  2253 NE           1.307   -16.571     6.699            144  ARG   -0.700
  2254 HE           1.763   -17.445     6.478            144  ARG    0.440
  2255 CZ           0.118   -16.615     7.319            144  ARG    0.640
  2256 NH1         -0.457   -15.573     7.785            144  ARG   -0.800
  2257 HH11        -0.103   -14.655     7.555            144  ARG    0.460
  2258 HH12        -1.442   -15.646     7.995            144  ARG    0.460
  2259 NH2         -0.444   -17.757     7.449            144  ARG   -0.800
  2260 HH21        -0.005   -18.475     8.008            144  ARG    0.460
  2261 HH22        -1.247   -17.986     6.881            144  ARG    0.460
  2262 C            6.289   -17.149     6.858            144  ARG    0.500
  2263 O            6.942   -16.703     7.816            144  ARG   -0.500
  2264 N           -8.820     4.529    18.850            145  ILE   -0.500
  2265 H           -9.664     4.605    18.300            145  ILE    0.300
  2266 CA          -7.770     3.600    18.398            145  ILE    0.140
  2267 HA          -7.908     2.649    18.913            145  ILE    0.060
  2268 CB          -7.912     3.380    16.817            145  ILE   -0.060
  2269 HB          -7.912     4.358    16.335            145  ILE    0.060
  2270 CG2         -6.745     2.594    16.290            145  ILE   -0.180
  2271 HG21        -6.812     2.487    15.207            145  ILE    0.060
  2272 HG22        -6.080     3.455    16.358            145  ILE    0.060
  2273 HG23        -6.413     1.722    16.854            145  ILE    0.060
  2274 CG1         -9.271     2.653    16.466            145  ILE   -0.120
  2275 HG12        -9.181     1.577    16.615            145  ILE    0.060
  2276 HG13       -10.007     2.966    17.206            145  ILE    0.060
  2277 CD1         -9.866     2.965    15.057            145  ILE   -0.180
  2278 HD11       -10.832     2.476    14.930            145  ILE    0.060
  2279 HD12        -9.204     2.601    14.271            145  ILE    0.060
  2280 HD13       -10.005     4.037    14.917            145  ILE    0.060
  2281 C           -6.384     4.179    18.806            145  ILE    0.500
  2282 O           -6.151     5.366    18.583            145  ILE   -0.500
  2283 N           -5.583     3.288    19.410            146  GLU   -0.500
  2284 H           -5.810     2.310    19.303            146  GLU    0.300
  2285 CA          -4.216     3.599    19.846            146  GLU    0.140
  2286 HA          -4.220     4.526    20.419            146  GLU    0.060
  2287 CB          -3.643     2.461    20.674            146  GLU   -0.120
  2288 HB2         -3.912     1.497    20.241            146  GLU    0.060
  2289 HB3         -2.557     2.549    20.684            146  GLU    0.060
  2290 CG          -4.103     2.544    22.162            146  GLU   -0.220
  2291 HG2         -5.191     2.555    22.228            146  GLU    0.060
  2292 HG3         -3.763     3.487    22.591            146  GLU    0.060
  2293 CD          -3.562     1.426    23.012            146  GLU    0.700
  2294 OE1         -3.820     0.227    22.733            146  GLU   -0.800
  2295 OE2         -2.797     1.672    23.919            146  GLU   -0.800
  2296 C           -3.350     3.775    18.604            146  GLU    0.500
  2297 O           -3.287     2.912    17.772            146  GLU   -0.500
  2298 N           -2.666     4.895    18.448            147  GLN   -0.500
  2299 H           -2.532     5.475    19.264            147  GLN    0.300
  2300 CA          -1.789     5.145    17.332            147  GLN    0.140
  2301 HA          -2.357     5.111    16.402            147  GLN    0.060
  2302 CB          -1.114     6.472    17.499            147  GLN   -0.120
  2303 HB2         -0.305     6.585    16.777            147  GLN    0.060
  2304 HB3         -0.678     6.473    18.498            147  GLN    0.060
  2305 CG          -2.122     7.677    17.397            147  GLN   -0.120
  2306 HG2         -1.627     8.616    17.644            147  GLN    0.060
  2307 HG3         -2.939     7.429    18.074            147  GLN    0.060
  2308 CD          -2.698     7.761    16.001            147  GLN    0.500
  2309 OE1         -3.804     7.309    15.752            147  GLN   -0.500
  2310 NE2         -1.939     8.273    15.058            147  GLN   -0.760
  2311 HE21        -2.272     8.300    14.105            147  GLN    0.380
  2312 HE22        -1.118     8.803    15.315            147  GLN    0.380
  2313 C           -0.677     4.053    17.309            147  GLN    0.500
  2314 O            0.014     3.802    18.335            147  GLN   -0.500
  2315 N           -0.389     3.451    16.140            148  PRO   -0.140
  2316 CD          -1.097     3.579    14.855            148  PRO   -0.050
  2317 HD2         -2.167     3.452    15.017            148  PRO    0.060
  2318 HD3         -0.745     4.464    14.325            148  PRO    0.060
  2319 CG          -0.532     2.408    14.095            148  PRO   -0.120
  2320 HG2         -0.608     2.572    13.020            148  PRO    0.060
  2321 HG3         -1.033     1.475    14.353            148  PRO    0.060
  2322 CB           0.825     2.411    14.506            148  PRO   -0.120
  2323 HB2          1.315     1.478    14.227            148  PRO    0.060
  2324 HB3          1.255     3.341    14.135            148  PRO    0.060
  2325 CA           0.764     2.558    16.028            148  PRO    0.010
  2326 HA           0.548     1.604    16.510            148  PRO    0.060
  2327 C            2.085     3.108    16.523            148  PRO    0.500
  2328 O            2.325     4.315    16.660            148  PRO   -0.500
  2329 N            3.049     2.189    16.688            149  ARG   -0.500
  2330 H            2.766     1.220    16.703            149  ARG    0.300
  2331 CA           4.391     2.468    17.139            149  ARG    0.140
  2332 HA           4.323     3.047    18.060            149  ARG    0.060
  2333 CB           5.220     1.184    17.401            149  ARG   -0.120
  2334 HB2          5.341     0.611    16.482            149  ARG    0.060
  2335 HB3          6.232     1.503    17.649            149  ARG    0.060
  2336 CG           4.747     0.289    18.530            149  ARG   -0.050
  2337 HG2          4.629     0.861    19.451            149  ARG    0.060
  2338 HG3          3.767    -0.124    18.289            149  ARG    0.060
  2339 CD           5.725    -0.812    18.718            149  ARG    0.190
  2340 HD2          5.258    -1.660    19.219            149  ARG    0.060
  2341 HD3          6.023    -1.181    17.737            149  ARG    0.060
  2342 NE           6.981    -0.427    19.449            149  ARG   -0.700
  2343 HE           6.940     0.413    20.008            149  ARG    0.440
  2344 CZ           8.005    -1.251    19.634            149  ARG    0.640
  2345 NH1          9.110    -0.859    20.254            149  ARG   -0.800
  2346 HH11         9.890    -0.504    19.720            149  ARG    0.460
  2347 HH12         9.103    -0.747    21.258            149  ARG    0.460
  2348 NH2          7.888    -2.520    19.285            149  ARG   -0.800
  2349 HH21         7.184    -2.797    18.616            149  ARG    0.460
  2350 HH22         8.626    -3.167    19.523            149  ARG    0.460
  2351 C            5.084     3.317    16.105            149  ARG    0.500
  2352 O            6.124     3.937    16.440            149  ARG   -0.500
  2353 N            4.675     3.218    14.840            150  TRP   -0.500
  2354 H            4.071     2.457    14.565            150  TRP    0.300
  2355 CA           5.351     3.973    13.800            150  TRP    0.140
  2356 HA           6.306     4.297    14.213            150  TRP    0.060
  2357 CB           5.633     3.028    12.622            150  TRP   -0.120
  2358 HB2          6.562     2.480    12.781            150  TRP    0.060
  2359 HB3          5.810     3.636    11.735            150  TRP    0.060
  2360 CG           4.475     2.009    12.256            150  TRP    0.075
  2361 CD1          4.452     0.646    12.429            150  TRP   -0.115
  2362 HD1          5.379     0.093    12.464            150  TRP    0.115
  2363 NE1          3.300     0.070    12.012            150  TRP   -0.570
  2364 HE1          3.295    -0.895    11.713            150  TRP    0.420
  2365 CE2          2.521     1.032    11.443            150  TRP    0.130
  2366 CZ2          1.349     0.896    10.741            150  TRP   -0.115
  2367 HZ2          1.166    -0.007    10.177            150  TRP    0.115
  2368 CH2          0.770     2.085    10.337            150  TRP   -0.115
  2369 HH2         -0.156     2.048     9.783            150  TRP    0.115
  2370 CZ3          1.364     3.315    10.555            150  TRP   -0.115
  2371 HZ3          0.772     4.203    10.392            150  TRP    0.115
  2372 CE3          2.571     3.449    11.192            150  TRP   -0.115
  2373 HE3          2.777     4.370    11.716            150  TRP    0.115
  2374 CD2          3.172     2.285    11.647            150  TRP   -0.055
  2375 C            4.553     5.290    13.403            150  TRP    0.500
  2376 O            4.862     5.905    12.368            150  TRP   -0.500
  2377 N            3.502     5.649    14.168            151  ALA   -0.500
  2378 H            3.038     4.923    14.694            151  ALA    0.300
  2379 CA           2.703     6.760    13.798            151  ALA    0.140
  2380 HA           2.529     6.689    12.724            151  ALA    0.060
  2381 CB           1.356     6.692    14.507            151  ALA   -0.180
  2382 HB1          1.018     7.689    14.789            151  ALA    0.060
  2383 HB2          0.599     6.257    13.854            151  ALA    0.060
  2384 HB3          1.454     6.076    15.401            151  ALA    0.060
  2385 C            3.503     8.048    14.038            151  ALA    0.500
  2386 O            3.918     8.320    15.164            151  ALA   -0.500
  2387 N            3.586     8.854    12.987            152  SER   -0.500
  2388 H            2.876     8.772    12.273            152  SER    0.300
  2389 CA           4.228    10.188    13.144            152  SER    0.140
  2390 HA           5.273    10.063    13.428            152  SER    0.060
  2391 CB           4.113    10.939    11.859            152  SER    0.145
  2392 HB2          3.067    11.081    11.588            152  SER    0.060
  2393 HB3          4.543    11.934    11.976            152  SER    0.060
  2394 OG           4.806    10.264    10.775            152  SER   -0.683
  2395 HG           4.315    10.395     9.978            152  SER    0.418
  2396 C            3.482    10.928    14.246            152  SER    0.500
  2397 O            2.255    10.875    14.308            152  SER   -0.500
  2398 N            4.254    11.538    15.169            153  LYS   -0.500
  2399 H            5.236    11.306    15.211            153  LYS    0.300
  2400 CA           3.640    12.079    16.367            153  LYS    0.140
  2401 HA           3.011    11.326    16.841            153  LYS    0.060
  2402 CB           4.721    12.456    17.423            153  LYS   -0.120
  2403 HB2          5.075    11.569    17.948            153  LYS    0.060
  2404 HB3          4.218    13.035    18.198            153  LYS    0.060
  2405 CG           5.905    13.305    16.928            153  LYS   -0.120
  2406 HG2          5.549    14.213    16.441            153  LYS    0.060
  2407 HG3          6.447    12.748    16.164            153  LYS    0.060
  2408 CD           6.891    13.656    18.104            153  LYS   -0.120
  2409 HD2          7.136    12.765    18.682            153  LYS    0.060
  2410 HD3          6.325    14.355    18.720            153  LYS    0.060
  2411 CE           8.168    14.390    17.666            153  LYS    0.190
  2412 HE2          8.677    14.823    18.527            153  LYS    0.060
  2413 HE3          7.906    15.152    16.932            153  LYS    0.060
  2414 NZ           9.035    13.386    17.038            153  LYS   -0.300
  2415 HZ1          8.561    12.494    17.023            153  LYS    0.330
  2416 HZ2          9.249    13.670    16.093            153  LYS    0.330
  2417 HZ3          9.892    13.303    17.567            153  LYS    0.330
  2418 C            2.769    13.325    16.039            153  LYS    0.500
  2419 O            1.867    13.591    16.849            153  LYS   -0.500
  2420 N            3.061    14.059    14.980            154  ASP   -0.500
  2421 H            4.007    13.995    14.633            154  ASP    0.300
  2422 CA           2.311    15.268    14.585            154  ASP    0.140
  2423 HA           2.188    15.907    15.459            154  ASP    0.060
  2424 CB           3.122    16.006    13.497            154  ASP   -0.220
  2425 HB2          3.403    15.322    12.696            154  ASP    0.060
  2426 HB3          4.056    16.363    13.930            154  ASP    0.060
  2427 CG           2.398    17.202    12.912            154  ASP    0.700
  2428 OD1          1.388    17.663    13.555            154  ASP   -0.800
  2429 OD2          2.856    17.743    11.843            154  ASP   -0.800
  2430 C            0.927    14.965    13.996            154  ASP    0.500
  2431 O            0.820    14.465    12.872            154  ASP   -0.500
  2432 N           -0.223    15.394    14.641            155  PRO   -0.140
  2433 CD          -0.329    16.032    15.967            155  PRO   -0.050
  2434 HD2          0.018    17.063    15.903            155  PRO    0.060
  2435 HD3          0.293    15.503    16.689            155  PRO    0.060
  2436 CG          -1.736    15.984    16.344            155  PRO   -0.120
  2437 HG2         -1.990    15.009    16.759            155  PRO    0.060
  2438 HG3         -1.922    16.889    16.922            155  PRO    0.060
  2439 CB          -2.372    16.174    15.070            155  PRO   -0.120
  2440 HB2         -2.348    17.224    14.779            155  PRO    0.060
  2441 HB3         -3.341    15.682    15.154            155  PRO    0.060
  2442 CA          -1.571    15.333    14.104            155  PRO    0.010
  2443 HA          -2.045    14.368    14.281            155  PRO    0.060
  2444 C           -1.794    15.866    12.693            155  PRO    0.500
  2445 O           -2.732    15.411    12.031            155  PRO   -0.500
  2446 N           -0.943    16.751    12.246            156  ALA   -0.500
  2447 H           -0.031    16.830    12.673            156  ALA    0.300
  2448 CA          -1.136    17.314    10.921            156  ALA    0.140
  2449 HA          -2.199    17.533    10.823            156  ALA    0.060
  2450 CB          -0.389    18.555    10.685            156  ALA   -0.180
  2451 HB1         -0.681    19.008     9.738            156  ALA    0.060
  2452 HB2         -0.586    19.280    11.475            156  ALA    0.060
  2453 HB3          0.684    18.367    10.657            156  ALA    0.060
  2454 C           -0.790    16.242     9.836            156  ALA    0.500
  2455 O           -1.302    16.350     8.688            156  ALA   -0.500
  2456 N           -0.045    15.186    10.214            157  ALA   -0.500
  2457 H            0.545    15.271    11.030            157  ALA    0.300
  2458 CA           0.283    14.117     9.235            157  ALA    0.140
  2459 HA           0.709    14.575     8.342            157  ALA    0.060
  2460 CB           1.305    13.148     9.873            157  ALA   -0.180
  2461 HB1          2.296    13.601     9.911            157  ALA    0.060
  2462 HB2          1.381    12.230     9.289            157  ALA    0.060
  2463 HB3          1.013    12.884    10.889            157  ALA    0.060
  2464 C           -1.038    13.357     8.836            157  ALA    0.500
  2465 O           -1.090    12.638     7.845            157  ALA   -0.500
  2466 N           -2.082    13.514     9.635            158  GLY   -0.500
  2467 H           -1.964    14.083    10.461            158  GLY    0.300
  2468 CA          -3.416    12.971     9.398            158  GLY    0.080
  2469 HA2         -3.393    12.320     8.524            158  GLY    0.060
  2470 HA3         -3.661    12.327    10.243            158  GLY    0.060
  2471 C           -4.566    13.993     9.248            158  GLY    0.500
  2472 O           -5.683    13.625     9.631            158  GLY   -0.500
  2473 N           -4.302    15.163     8.769            159  LYS   -0.500
  2474 H           -3.353    15.505     8.810            159  LYS    0.300
  2475 CA          -5.388    16.160     8.572            159  LYS    0.140
  2476 HA          -6.354    15.705     8.790            159  LYS    0.060
  2477 CB          -5.247    17.362     9.551            159  LYS   -0.120
  2478 HB2         -4.278    17.847     9.428            159  LYS    0.060
  2479 HB3         -5.959    18.120     9.224            159  LYS    0.060
  2480 CG          -5.532    17.097    11.023            159  LYS   -0.120
  2481 HG2         -5.062    16.167    11.344            159  LYS    0.060
  2482 HG3         -6.604    16.956    11.159            159  LYS    0.060
  2483 CD          -5.056    18.288    11.910            159  LYS   -0.120
  2484 HD2         -5.573    19.206    11.630            159  LYS    0.060
  2485 HD3         -3.999    18.472    11.715            159  LYS    0.060
  2486 CE          -5.238    18.003    13.384            159  LYS    0.190
  2487 HE2         -6.224    17.581    13.576            159  LYS    0.060
  2488 HE3         -4.522    17.239    13.687            159  LYS    0.060
  2489 NZ          -5.016    19.253    14.305            159  LYS   -0.300
  2490 HZ1         -4.293    19.837    13.911            159  LYS    0.330
  2491 HZ2         -5.876    19.779    14.370            159  LYS    0.330
  2492 HZ3         -4.737    18.947    15.226            159  LYS    0.330
  2493 C           -5.375    16.650     7.118            159  LYS    0.500
  2494 O           -4.369    16.583     6.373            159  LYS   -0.500
  2495 N           -6.502    17.233     6.674            160  ALA   -0.500
  2496 H           -7.122    17.649     7.354            160  ALA    0.300
  2497 CA          -6.659    17.670     5.294            160  ALA    0.140
  2498 HA          -6.279    16.883     4.643            160  ALA    0.060
  2499 CB          -8.134    17.911     4.993            160  ALA   -0.180
  2500 HB1         -8.582    18.511     5.785            160  ALA    0.060
  2501 HB2         -8.252    18.457     4.057            160  ALA    0.060
  2502 HB3         -8.638    16.947     4.920            160  ALA    0.060
  2503 C           -5.845    19.001     4.991            160  ALA    0.500
  2504 O           -6.028    20.033     5.693            160  ALA   -0.500
  2505 N           -4.966    18.963     3.996            161  SER   -0.500
  2506 H           -4.608    18.062     3.713            161  SER    0.300
  2507 CA          -4.231    20.136     3.530            161  SER    0.140
  2508 HA          -4.165    20.857     4.345            161  SER    0.060
  2509 CB          -2.808    19.736     3.148            161  SER    0.145
  2510 HB2         -2.211    20.617     2.912            161  SER    0.060
  2511 HB3         -2.325    19.253     3.997            161  SER    0.060
  2512 OG          -2.780    18.823     2.034            161  SER   -0.683
  2513 HG          -2.004    18.289     2.104            161  SER    0.418
  2514 C           -5.003    20.761     2.350            161  SER    0.500
  2515 O           -4.836    21.928     1.938            161  SER   -0.500
  2516 N           -5.881    19.908     1.772            162  THR   -0.500
  2517 H           -6.076    19.022     2.216            162  THR    0.300
  2518 CA          -6.755    20.333     0.654            162  THR    0.140
  2519 HA          -6.819    21.421     0.635            162  THR    0.060
  2520 CB          -6.145    19.773    -0.730            162  THR    0.205
  2521 HB          -6.823    20.014    -1.548            162  THR    0.060
  2522 CG2         -4.767    20.360    -1.008            162  THR   -0.180
  2523 HG21        -4.399    20.905    -0.139            162  THR    0.060
  2524 HG22        -4.051    19.569    -1.232            162  THR    0.060
  2525 HG23        -4.878    21.055    -1.840            162  THR    0.060
  2526 OG1         -6.011    18.324    -0.584            162  THR   -0.683
  2527 HG1         -5.991    18.117     0.338            162  THR    0.418
  2528 C           -8.152    19.743     0.724            162  THR    0.500
  2529 O           -8.344    18.705     1.382            162  THR   -0.500
  2530 N           -9.121    20.345     0.062            163  PRO   -0.140
  2531 CD          -9.149    21.624    -0.670            163  PRO   -0.050
  2532 HD2         -8.563    22.366    -0.128            163  PRO    0.060
  2533 HD3         -8.776    21.514    -1.688            163  PRO    0.060
  2534 CG         -10.623    21.965    -0.616            163  PRO   -0.120
  2535 HG2        -10.865    22.745    -1.338            163  PRO    0.060
  2536 HG3        -10.951    22.257     0.382            163  PRO    0.060
  2537 CB         -11.164    20.712    -1.028            163  PRO   -0.120
  2538 HB2        -12.246    20.698    -0.895            163  PRO    0.060
  2539 HB3        -10.751    20.479    -2.009            163  PRO    0.060
  2540 CA         -10.469    19.740    -0.015            163  PRO    0.010
  2541 HA         -10.954    19.758     0.961            163  PRO    0.060
  2542 C          -10.424    18.353    -0.558            163  PRO    0.500
  2543 O          -11.301    17.568    -0.130            163  PRO   -0.500
  2544 N           -9.503    17.962    -1.465            164  ASP   -0.500
  2545 H           -8.645    18.485    -1.566            164  ASP    0.300
  2546 CA          -9.540    16.582    -1.959            164  ASP    0.140
  2547 HA         -10.528    16.363    -2.365            164  ASP    0.060
  2548 CB          -8.411    16.347    -3.057            164  ASP   -0.220
  2549 HB2         -7.435    16.645    -2.675            164  ASP    0.060
  2550 HB3         -8.343    15.283    -3.283            164  ASP    0.060
  2551 CG          -8.701    17.107    -4.386            164  ASP    0.700
  2552 OD1         -8.843    16.466    -5.419            164  ASP   -0.800
  2553 OD2         -8.639    18.371    -4.403            164  ASP   -0.800
  2554 C           -9.239    15.619    -0.743            164  ASP    0.500
  2555 O           -9.977    14.667    -0.558            164  ASP   -0.500
  2556 N           -8.215    15.937     0.082            165  GLU   -0.500
  2557 H           -7.414    16.399    -0.325            165  GLU    0.300
  2558 CA          -7.981    15.105     1.229            165  GLU    0.140
  2559 HA          -7.815    14.087     0.876            165  GLU    0.060
  2560 CB          -6.639    15.527     1.898            165  GLU   -0.120
  2561 HB2         -6.618    15.949     2.903            165  GLU    0.060
  2562 HB3         -6.708    16.550     1.527            165  GLU    0.060
  2563 CG          -5.350    15.248     1.131            165  GLU   -0.220
  2564 HG2         -5.386    15.703     0.141            165  GLU    0.060
  2565 HG3         -5.311    14.162     1.048            165  GLU    0.060
  2566 CD          -4.088    15.702     1.851            165  GLU    0.700
  2567 OE1         -4.178    16.592     2.736            165  GLU   -0.800
  2568 OE2         -2.913    15.386     1.451            165  GLU   -0.800
  2569 C           -9.129    15.140     2.227            165  GLU    0.500
  2570 O           -9.373    14.172     2.948            165  GLU   -0.500
  2571 N           -9.850    16.230     2.308            166  LYS   -0.500
  2572 H           -9.622    17.006     1.703            166  LYS    0.300
  2573 CA         -11.009    16.391     3.208            166  LYS    0.140
  2574 HA         -10.684    16.116     4.211            166  LYS    0.060
  2575 CB         -11.508    17.864     3.231            166  LYS   -0.120
  2576 HB2        -10.675    18.550     3.385            166  LYS    0.060
  2577 HB3        -11.955    18.119     2.270            166  LYS    0.060
  2578 CG         -12.546    18.017     4.346            166  LYS   -0.120
  2579 HG2        -12.390    17.266     5.121            166  LYS    0.060
  2580 HG3        -13.532    17.805     3.932            166  LYS    0.060
  2581 CD         -12.565    19.398     4.941            166  LYS   -0.120
  2582 HD2        -11.611    19.627     5.416            166  LYS    0.060
  2583 HD3        -12.696    20.133     4.146            166  LYS    0.060
  2584 CE         -13.727    19.529     5.958            166  LYS    0.190
  2585 HE2        -14.689    19.409     5.460            166  LYS    0.060
  2586 HE3        -13.657    18.729     6.695            166  LYS    0.060
  2587 NZ         -13.702    20.837     6.685            166  LYS   -0.300
  2588 HZ1        -12.857    20.901     7.235            166  LYS    0.330
  2589 HZ2        -13.726    21.594     6.017            166  LYS    0.330
  2590 HZ3        -14.506    20.899     7.293            166  LYS    0.330
  2591 C          -12.113    15.447     2.816            166  LYS    0.500
  2592 O          -12.685    14.796     3.711            166  LYS   -0.500
  2593 N          -12.436    15.412     1.522            167  ILE   -0.500
  2594 H          -11.749    15.744     0.861            167  ILE    0.300
  2595 CA         -13.570    14.643     0.964            167  ILE    0.140
  2596 HA         -14.484    14.963     1.464            167  ILE    0.060
  2597 CB         -13.748    14.850    -0.543            167  ILE   -0.060
  2598 HB         -12.765    14.939    -1.006            167  ILE    0.060
  2599 CG2        -14.507    13.670    -1.200            167  ILE   -0.180
  2600 HG21       -15.455    13.491    -0.692            167  ILE    0.060
  2601 HG22       -14.727    13.888    -2.245            167  ILE    0.060
  2602 HG23       -13.919    12.753    -1.159            167  ILE    0.060
  2603 CG1        -14.534    16.175    -0.763            167  ILE   -0.120
  2604 HG12       -15.591    16.039    -0.532            167  ILE    0.060
  2605 HG13       -14.148    16.907    -0.054            167  ILE    0.060
  2606 CD1        -14.363    16.825    -2.117            167  ILE   -0.180
  2607 HD11       -14.563    16.110    -2.916            167  ILE    0.060
  2608 HD12       -15.057    17.657    -2.234            167  ILE    0.060
  2609 HD13       -13.350    17.206    -2.245            167  ILE    0.060
  2610 C          -13.330    13.155     1.337            167  ILE    0.500
  2611 O          -14.258    12.436     1.744            167  ILE   -0.500
  2612 N          -12.041    12.672     1.297            168  VAL   -0.500
  2613 H          -11.282    13.312     1.113            168  VAL    0.300
  2614 CA         -11.704    11.298     1.614            168  VAL    0.140
  2615 HA         -12.453    10.636     1.179            168  VAL    0.060
  2616 CB         -10.334    10.949     1.012            168  VAL   -0.060
  2617 HB          -9.557    11.641     1.336            168  VAL    0.060
  2618 CG1         -9.878     9.528     1.290            168  VAL   -0.180
  2619 HG11        -9.184     9.188     0.521            168  VAL    0.060
  2620 HG12        -9.364     9.470     2.249            168  VAL    0.060
  2621 HG13       -10.724     8.841     1.314            168  VAL    0.060
  2622 CG2        -10.370    10.992    -0.562            168  VAL   -0.180
  2623 HG21       -11.371    10.769    -0.931            168  VAL    0.060
  2624 HG22       -10.094    11.981    -0.927            168  VAL    0.060
  2625 HG23        -9.679    10.266    -0.990            168  VAL    0.060
  2626 C          -11.691    11.117     3.114            168  VAL    0.500
  2627 O          -12.062    10.075     3.612            168  VAL   -0.500
  2628 N          -11.266    12.094     3.932            169  LEU   -0.500
  2629 H          -10.886    12.947     3.546            169  LEU    0.300
  2630 CA         -11.279    11.931     5.392            169  LEU    0.140
  2631 HA         -10.732    11.026     5.657            169  LEU    0.060
  2632 CB         -10.688    13.134     6.104            169  LEU   -0.120
  2633 HB2        -11.100    13.228     7.109            169  LEU    0.060
  2634 HB3        -10.942    14.019     5.521            169  LEU    0.060
  2635 CG          -9.135    13.021     6.156            169  LEU   -0.060
  2636 HG          -8.793    12.675     5.181            169  LEU    0.060
  2637 CD1         -8.378    14.322     6.482            169  LEU   -0.180
  2638 HD11        -8.627    14.672     7.484            169  LEU    0.060
  2639 HD12        -8.646    15.110     5.778            169  LEU    0.060
  2640 HD13        -7.300    14.172     6.428            169  LEU    0.060
  2641 CD2         -8.778    11.943     7.199            169  LEU   -0.180
  2642 HD21        -9.681    11.509     7.629            169  LEU    0.060
  2643 HD22        -8.207    11.136     6.739            169  LEU    0.060
  2644 HD23        -8.182    12.363     8.009            169  LEU    0.060
  2645 C          -12.787    11.765     5.806            169  LEU    0.500
  2646 O          -13.148    10.836     6.535            169  LEU   -0.500
  2647 N          -13.673    12.610     5.238            170  GLU   -0.500
  2648 H          -13.422    13.037     4.358            170  GLU    0.300
  2649 CA         -15.103    12.434     5.473            170  GLU    0.140
  2650 HA         -15.240    12.501     6.552            170  GLU    0.060
  2651 CB         -15.944    13.524     4.843            170  GLU   -0.120
  2652 HB2        -16.985    13.211     4.762            170  GLU    0.060
  2653 HB3        -15.612    13.645     3.812            170  GLU    0.060
  2654 CG         -15.844    14.851     5.509            170  GLU   -0.220
  2655 HG2        -14.808    15.083     5.756            170  GLU    0.060
  2656 HG3        -16.424    14.761     6.427            170  GLU    0.060
  2657 CD         -16.427    15.971     4.655            170  GLU    0.700
  2658 OE1        -16.865    15.712     3.485            170  GLU   -0.800
  2659 OE2        -16.632    17.074     5.153            170  GLU   -0.800
  2660 C          -15.575    10.985     5.064            170  GLU    0.500
  2661 O          -16.225    10.286     5.819            170  GLU   -0.500
  2662 N          -15.216    10.554     3.842            171  PHE   -0.500
  2663 H          -14.388    10.978     3.449            171  PHE    0.300
  2664 CA         -15.533     9.223     3.310            171  PHE    0.140
  2665 HA         -16.618     9.183     3.214            171  PHE    0.060
  2666 CB         -15.005     9.091     1.920            171  PHE   -0.005
  2667 HB2        -13.979     9.453     1.862            171  PHE    0.060
  2668 HB3        -15.635     9.746     1.318            171  PHE    0.060
  2669 CG         -15.077     7.634     1.355            171  PHE   -0.115
  2670 CD1        -16.281     6.929     1.429            171  PHE   -0.115
  2671 HD1        -17.175     7.432     1.768            171  PHE    0.115
  2672 CE1        -16.355     5.621     1.002            171  PHE   -0.115
  2673 HE1        -17.047     4.969     1.514            171  PHE    0.115
  2674 CZ         -15.260     5.027     0.346            171  PHE   -0.115
  2675 HZ         -15.218     3.952     0.254            171  PHE    0.115
  2676 CE2        -14.110     5.758     0.219            171  PHE   -0.115
  2677 HE2        -13.212     5.252    -0.104            171  PHE    0.115
  2678 CD2        -13.997     7.036     0.734            171  PHE   -0.115
  2679 HD2        -13.010     7.425     0.937            171  PHE    0.115
  2680 C          -15.052     8.020     4.127            171  PHE    0.500
  2681 O          -15.824     7.183     4.573            171  PHE   -0.500
  2682 N          -13.832     8.088     4.606            172  MET   -0.500
  2683 H          -13.194     8.692     4.107            172  MET    0.300
  2684 CA         -13.171     7.116     5.512            172  MET    0.140
  2685 HA         -13.266     6.127     5.064            172  MET    0.060
  2686 CB         -11.655     7.464     5.661            172  MET   -0.120
  2687 HB2        -11.528     8.479     6.038            172  MET    0.060
  2688 HB3        -11.236     6.822     6.436            172  MET    0.060
  2689 CG         -10.828     7.255     4.365            172  MET    0.098
  2690 HG2         -9.894     7.815     4.409            172  MET    0.060
  2691 HG3        -11.470     7.541     3.532            172  MET    0.060
  2692 SD         -10.461     5.446     4.220            172  MET   -0.435
  2693 CE         -11.832     4.883     2.971            172  MET    0.037
  2694 HE1        -11.819     5.536     2.099            172  MET    0.060
  2695 HE2        -11.620     3.869     2.631            172  MET    0.060
  2696 HE3        -12.820     4.912     3.431            172  MET    0.060
  2697 C          -13.831     7.065     6.918            172  MET    0.500
  2698 O          -13.752     5.989     7.508            172  MET   -0.500
  2699 N          -14.414     8.156     7.349            173  ASP   -0.500
  2700 H          -14.453     8.973     6.756            173  ASP    0.300
  2701 CA         -15.110     8.194     8.628            173  ASP    0.140
  2702 HA         -14.629     7.500     9.318            173  ASP    0.060
  2703 CB         -15.011     9.572     9.137            173  ASP   -0.220
  2704 HB2        -13.968     9.866     9.251            173  ASP    0.060
  2705 HB3        -15.453    10.261     8.417            173  ASP    0.060
  2706 CG         -15.757     9.745    10.510            173  ASP    0.700
  2707 OD1        -15.254     9.214    11.518            173  ASP   -0.800
  2708 OD2        -16.779    10.395    10.577            173  ASP   -0.800
  2709 C          -16.553     7.770     8.422            173  ASP    0.500
  2710 O          -17.258     7.297     9.337            173  ASP   -0.500
  2711 N          -17.137     7.979     7.214            174  ALA   -0.500
  2712 H          -16.571     8.340     6.459            174  ALA    0.300
  2713 CA         -18.514     7.643     6.912            174  ALA    0.140
  2714 HA         -19.153     8.017     7.712            174  ALA    0.060
  2715 CB         -18.939     8.281     5.626            174  ALA   -0.180
  2716 HB1        -18.472     7.784     4.775            174  ALA    0.060
  2717 HB2        -18.644     9.330     5.602            174  ALA    0.060
  2718 HB3        -20.022     8.197     5.532            174  ALA    0.060
  2719 C          -18.580     6.111     6.893            174  ALA    0.500
  2720 O          -19.638     5.548     6.864            174  ALA   -0.500
  2721 N          -17.454     5.411     6.803            175  LEU   -0.500
  2722 H          -16.571     5.896     6.736            175  LEU    0.300
  2723 CA         -17.471     3.988     6.545            175  LEU    0.140
  2724 HA         -17.921     3.840     5.563            175  LEU    0.060
  2725 CB         -16.080     3.433     6.493            175  LEU   -0.120
  2726 HB2        -16.077     2.378     6.766            175  LEU    0.060
  2727 HB3        -15.502     3.920     7.279            175  LEU    0.060
  2728 CG         -15.324     3.655     5.146            175  LEU   -0.060
  2729 HG         -15.091     4.709     4.995            175  LEU    0.060
  2730 CD1        -14.006     2.984     5.393            175  LEU   -0.180
  2731 HD11       -14.076     2.297     6.236            175  LEU    0.060
  2732 HD12       -13.698     2.408     4.520            175  LEU    0.060
  2733 HD13       -13.228     3.715     5.612            175  LEU    0.060
  2734 CD2        -15.968     3.047     3.967            175  LEU   -0.180
  2735 HD21       -16.889     3.573     3.717            175  LEU    0.060
  2736 HD22       -15.310     3.099     3.100            175  LEU    0.060
  2737 HD23       -16.211     2.000     4.149            175  LEU    0.060
  2738 C          -18.271     3.148     7.613            175  LEU    0.500
  2739 O          -18.729     2.025     7.352            175  LEU   -0.500
  2740 N          -18.443     3.702     8.835            176  THR   -0.500
  2741 H          -18.291     4.693     8.954            176  THR    0.300
  2742 CA         -19.112     2.980     9.908            176  THR    0.140
  2743 HA         -18.749     1.952     9.924            176  THR    0.060
  2744 CB         -18.798     3.681    11.255            176  THR    0.205
  2745 HB         -19.572     3.428    11.980            176  THR    0.060
  2746 CG2        -17.468     3.320    11.813            176  THR   -0.180
  2747 HG21       -17.555     2.478    12.500            176  THR    0.060
  2748 HG22       -17.043     4.158    12.366            176  THR    0.060
  2749 HG23       -16.771     3.045    11.021            176  THR    0.060
  2750 OG1        -18.820     5.134    11.057            176  THR   -0.683
  2751 HG1        -17.940     5.425    10.873            176  THR    0.418
  2752 C          -20.617     2.968     9.778            176  THR    0.500
  2753 O          -21.299     2.264    10.507            176  THR   -0.500
  2754 N          -21.165     3.684     8.799            177  SER   -0.500
  2755 H          -20.604     4.377     8.323            177  SER    0.300
  2756 CA         -22.574     3.620     8.477            177  SER    0.140
  2757 HA         -23.152     3.715     9.397            177  SER    0.060
  2758 CB         -22.940     4.743     7.507            177  SER    0.145
  2759 HB2        -24.008     4.732     7.289            177  SER    0.060
  2760 HB3        -22.616     5.660     8.000            177  SER    0.060
  2761 OG         -22.212     4.586     6.308            177  SER   -0.683
  2762 HG         -21.428     4.093     6.496            177  SER    0.418
  2763 C          -22.849     2.273     7.864            177  SER    0.500
  2764 O          -24.016     1.810     7.969            177  SER   -0.500
  2765 N          -21.906     1.629     7.221            178  ASN   -0.500
  2766 H          -20.962     1.964     7.354            178  ASN    0.300
  2767 CA         -22.026     0.303     6.632            178  ASN    0.140
  2768 HA         -21.108     0.104     6.080            178  ASN    0.060
  2769 CB         -22.239    -0.857     7.718            178  ASN   -0.120
  2770 HB2        -22.562    -1.780     7.237            178  ASN    0.060
  2771 HB3        -23.033    -0.571     8.407            178  ASN    0.060
  2772 CG         -20.993    -1.119     8.516            178  ASN    0.500
  2773 OD1        -20.265    -2.099     8.222            178  ASN   -0.500
  2774 ND2        -20.700    -0.273     9.401            178  ASN   -0.760
  2775 HD21       -21.390    -0.007    10.089            178  ASN    0.380
  2776 HD22       -19.736     0.002     9.526            178  ASN    0.380
  2777 C          -23.209     0.268     5.611            178  ASN    0.500
  2778 O          -23.707    -0.782     5.240            178  ASN   -0.500
  2779 N          -23.452     1.461     5.070            179  ASP   -0.500
  2780 H          -22.680     2.107     4.984            179  ASP    0.300
  2781 CA         -24.552     1.616     4.128            179  ASP    0.140
  2782 HA         -25.155     0.708     4.104            179  ASP    0.060
  2783 CB         -25.388     2.830     4.576            179  ASP   -0.220
  2784 HB2        -25.767     2.685     5.588            179  ASP    0.060
  2785 HB3        -24.710     3.683     4.558            179  ASP    0.060
  2786 CG         -26.533     3.120     3.646            179  ASP    0.700
  2787 OD1        -26.570     2.574     2.528            179  ASP   -0.800
  2788 OD2        -27.446     3.865     4.019            179  ASP   -0.800
  2789 C          -23.970     1.896     2.749            179  ASP    0.500
  2790 O          -23.648     3.016     2.452            179  ASP   -0.500
  2791 N          -23.819     0.864     1.940            180  ALA   -0.500
  2792 H          -23.745    -0.066     2.327            180  ALA    0.300
  2793 CA         -23.384     1.074     0.575            180  ALA    0.140
  2794 HA         -22.329     1.340     0.635            180  ALA    0.060
  2795 CB         -23.491    -0.270    -0.207            180  ALA   -0.180
  2796 HB1        -23.428    -0.097    -1.281            180  ALA    0.060
  2797 HB2        -24.444    -0.758    -0.004            180  ALA    0.060
  2798 HB3        -22.690    -0.953     0.076            180  ALA    0.060
  2799 C          -24.062     2.196    -0.283            180  ALA    0.500
  2800 O          -23.336     2.915    -0.997            180  ALA   -0.500
  2801 N          -25.361     2.302    -0.253            181  ALA   -0.500
  2802 H          -25.851     1.933     0.549            181  ALA    0.300
  2803 CA         -26.052     3.343    -1.046            181  ALA    0.140
  2804 HA         -25.867     3.184    -2.108            181  ALA    0.060
  2805 CB         -27.548     3.206    -0.869            181  ALA   -0.180
  2806 HB1        -27.808     3.175     0.189            181  ALA    0.060
  2807 HB2        -27.907     2.285    -1.327            181  ALA    0.060
  2808 HB3        -28.076     4.043    -1.326            181  ALA    0.060
  2809 C          -25.578     4.724    -0.628            181  ALA    0.500
  2810 O          -25.721     5.654    -1.375            181  ALA   -0.500
  2811 N          -25.200     4.868     0.637            182  LYS   -0.500
  2812 H          -25.228     4.068     1.253            182  LYS    0.300
  2813 CA         -24.879     6.202     1.238            182  LYS    0.140
  2814 HA         -25.447     6.984     0.734            182  LYS    0.060
  2815 CB         -25.208     6.155     2.725            182  LYS   -0.120
  2816 HB2        -24.556     5.451     3.242            182  LYS    0.060
  2817 HB3        -26.249     5.838     2.780            182  LYS    0.060
  2818 CG         -25.170     7.518     3.403            182  LYS   -0.120
  2819 HG2        -26.032     8.118     3.110            182  LYS    0.060
  2820 HG3        -24.204     7.961     3.163            182  LYS    0.060
  2821 CD         -25.177     7.265     4.907            182  LYS   -0.120
  2822 HD2        -26.070     6.712     5.199            182  LYS    0.060
  2823 HD3        -24.252     6.724     5.109            182  LYS    0.060
  2824 CE         -25.099     8.621     5.662            182  LYS    0.190
  2825 HE2        -25.552     8.537     6.650            182  LYS    0.060
  2826 HE3        -25.684     9.298     5.039            182  LYS    0.060
  2827 NZ         -23.726     9.196     5.791            182  LYS   -0.300
  2828 HZ1        -23.665     9.734     6.644            182  LYS    0.330
  2829 HZ2        -23.049     8.447     5.816            182  LYS    0.330
  2830 HZ3        -23.536     9.795     5.000            182  LYS    0.330
  2831 C          -23.398     6.460     1.088            182  LYS    0.500
  2832 O          -22.987     7.580     0.904            182  LYS   -0.500
  2833 N          -22.578     5.414     0.991            183  LEU   -0.500
  2834 H          -22.983     4.537     0.695            183  LEU    0.300
  2835 CA         -21.153     5.596     0.695            183  LEU    0.140
  2836 HA         -20.790     6.412     1.320            183  LEU    0.060
  2837 CB         -20.386     4.342     1.170            183  LEU   -0.120
  2838 HB2        -20.620     3.491     0.530            183  LEU    0.060
  2839 HB3        -19.346     4.541     0.913            183  LEU    0.060
  2840 CG         -20.346     3.900     2.666            183  LEU   -0.060
  2841 HG         -21.362     3.690     3.000            183  LEU    0.060
  2842 CD1        -19.541     2.667     2.776            183  LEU   -0.180
  2843 HD11       -19.456     2.354     3.817            183  LEU    0.060
  2844 HD12       -18.533     2.828     2.393            183  LEU    0.060
  2845 HD13       -19.993     1.852     2.212            183  LEU    0.060
  2846 CD2        -19.744     5.013     3.559            183  LEU   -0.180
  2847 HD21       -19.138     5.698     2.966            183  LEU    0.060
  2848 HD22       -20.534     5.594     4.036            183  LEU    0.060
  2849 HD23       -19.158     4.499     4.321            183  LEU    0.060
  2850 C          -20.852     5.920    -0.833            183  LEU    0.500
  2851 O          -19.963     6.702    -1.122            183  LEU   -0.500
  2852 N          -21.535     5.257    -1.771            184  ILE   -0.500
  2853 H          -22.086     4.452    -1.511            184  ILE    0.300
  2854 CA         -21.284     5.494    -3.205            184  ILE    0.140
  2855 HA         -20.234     5.272    -3.397            184  ILE    0.060
  2856 CB         -22.202     4.520    -4.113            184  ILE   -0.060
  2857 HB         -22.097     3.516    -3.701            184  ILE    0.060
  2858 CG2        -23.692     4.877    -4.040            184  ILE   -0.180
  2859 HG21       -23.825     5.954    -3.936            184  ILE    0.060
  2860 HG22       -24.160     4.400    -3.179            184  ILE    0.060
  2861 HG23       -24.219     4.553    -4.938            184  ILE    0.060
  2862 CG1        -21.699     4.452    -5.629            184  ILE   -0.120
  2863 HG12       -22.388     3.867    -6.238            184  ILE    0.060
  2864 HG13       -21.728     5.482    -5.986            184  ILE    0.060
  2865 CD1        -20.275     3.987    -5.834            184  ILE   -0.180
  2866 HD11       -19.931     3.409    -4.976            184  ILE    0.060
  2867 HD12       -19.605     4.839    -5.953            184  ILE    0.060
  2868 HD13       -20.191     3.361    -6.722            184  ILE    0.060
  2869 C          -21.530     6.973    -3.587            184  ILE    0.500
  2870 O          -21.097     7.517    -4.596            184  ILE   -0.500
  2871 N          -22.226     7.710    -2.708            185  LYS   -0.500
  2872 H          -22.410     7.313    -1.798            185  LYS    0.300
  2873 CA         -22.419     9.173    -2.853            185  LYS    0.140
  2874 HA         -23.048     9.371    -3.721            185  LYS    0.060
  2875 CB         -23.124     9.877    -1.701            185  LYS   -0.120
  2876 HB2        -23.102    10.958    -1.839            185  LYS    0.060
  2877 HB3        -22.512     9.717    -0.814            185  LYS    0.060
  2878 CG         -24.600     9.385    -1.335            185  LYS   -0.120
  2879 HG2        -24.651     8.296    -1.324            185  LYS    0.060
  2880 HG3        -25.273     9.695    -2.134            185  LYS    0.060
  2881 CD         -25.136     9.980     0.021            185  LYS   -0.120
  2882 HD2        -25.070    11.068     0.016            185  LYS    0.060
  2883 HD3        -24.542     9.519     0.810            185  LYS    0.060
  2884 CE         -26.639     9.505     0.319            185  LYS    0.190
  2885 HE2        -26.692     8.419     0.395            185  LYS    0.060
  2886 HE3        -27.208     9.794    -0.565            185  LYS    0.060
  2887 NZ         -27.262    10.108     1.496            185  LYS   -0.300
  2888 HZ1        -26.544    10.429     2.130            185  LYS    0.330
  2889 HZ2        -27.836    10.889     1.211            185  LYS    0.330
  2890 HZ3        -27.837     9.420     1.961            185  LYS    0.330
  2891 C          -21.091     9.936    -3.115            185  LYS    0.500
  2892 O          -21.114    10.921    -3.777            185  LYS   -0.500
  2893 N          -19.970     9.467    -2.565            186  TYR   -0.500
  2894 H          -20.026     8.676    -1.939            186  TYR    0.300
  2895 CA         -18.679    10.172    -2.660            186  TYR    0.140
  2896 HA         -18.858    11.238    -2.517            186  TYR    0.060
  2897 CB         -17.761     9.698    -1.530            186  TYR   -0.005
  2898 HB2        -16.721     9.930    -1.758            186  TYR    0.060
  2899 HB3        -17.827     8.612    -1.465            186  TYR    0.060
  2900 CG         -18.103    10.228    -0.178            186  TYR   -0.115
  2901 CD1        -18.922     9.552     0.743            186  TYR   -0.115
  2902 HD1        -18.901     8.472     0.720            186  TYR    0.115
  2903 CE1        -19.284    10.175     1.984            186  TYR   -0.115
  2904 HE1        -20.192     9.857     2.475            186  TYR    0.115
  2905 CZ         -18.721    11.340     2.360            186  TYR    0.150
  2906 OH         -18.971    11.956     3.553            186  TYR   -0.585
  2907 HH         -19.807    11.716     3.923            186  TYR    0.435
  2908 CE2        -17.867    12.013     1.519            186  TYR   -0.115
  2909 HE2        -17.668    13.058     1.707            186  TYR    0.115
  2910 CD2        -17.595    11.492     0.255            186  TYR   -0.115
  2911 HD2        -17.069    12.110    -0.458            186  TYR    0.115
  2912 C          -17.939     9.955    -4.021            186  TYR    0.500
  2913 O          -16.838    10.562    -4.318            186  TYR   -0.500
  2914 N          -18.485     9.091    -4.876            187  PHE   -0.500
  2915 H          -19.442     8.808    -4.722            187  PHE    0.300
  2916 CA         -17.820     8.575    -6.106            187  PHE    0.140
  2917 HA         -16.754     8.782    -6.008            187  PHE    0.060
  2918 CB         -18.015     7.063    -6.218            187  PHE   -0.005
  2919 HB2        -19.076     6.814    -6.241            187  PHE    0.060
  2920 HB3        -17.602     6.719    -7.166            187  PHE    0.060
  2921 CG         -17.343     6.293    -5.116            187  PHE   -0.115
  2922 CD1        -17.820     6.333    -3.814            187  PHE   -0.115
  2923 HD1        -18.443     7.168    -3.529            187  PHE    0.115
  2924 CE1        -17.170     5.650    -2.803            187  PHE   -0.115
  2925 HE1        -17.450     5.816    -1.773            187  PHE    0.115
  2926 CZ         -16.047     4.924    -3.096            187  PHE   -0.115
  2927 HZ         -15.359     4.725    -2.288            187  PHE    0.115
  2928 CE2        -15.538     4.901    -4.376            187  PHE   -0.115
  2929 HE2        -14.661     4.314    -4.606            187  PHE    0.115
  2930 CD2        -16.206     5.575    -5.370            187  PHE   -0.115
  2931 HD2        -16.071     5.212    -6.378            187  PHE    0.115
  2932 C          -18.314     9.300    -7.379            187  PHE    0.500
  2933 O          -19.423     9.874    -7.346            187  PHE   -0.500
  2934 N          -17.511     9.205    -8.435            188  ALA   -0.500
  2935 H          -16.657     8.674    -8.344            188  ALA    0.300
  2936 CA         -17.786     9.800    -9.731            188  ALA    0.140
  2937 HA         -18.384    10.704    -9.616            188  ALA    0.060
  2938 CB         -16.500    10.072   -10.483            188  ALA   -0.180
  2939 HB1        -16.671    10.774   -11.299            188  ALA    0.060
  2940 HB2        -15.752    10.508    -9.821            188  ALA    0.060
  2941 HB3        -16.089     9.154   -10.904            188  ALA    0.060
  2942 C          -18.606     8.697   -10.436            188  ALA    0.500
  2943 O          -18.716     7.562    -9.982            188  ALA   -0.500
  2944 N          -19.193     9.078   -11.580            189  GLU   -0.500
  2945 H          -19.465    10.045   -11.685            189  GLU    0.300
  2946 CA         -19.835     8.086   -12.482            189  GLU    0.140
  2947 HA         -20.545     7.518   -11.881            189  GLU    0.060
  2948 CB         -20.620     8.848   -13.596            189  GLU   -0.120
  2949 HB2        -21.317     9.561   -13.155            189  GLU    0.060
  2950 HB3        -19.909     9.459   -14.151            189  GLU    0.060
  2951 CG         -21.340     7.934   -14.597            189  GLU   -0.220
  2952 HG2        -22.130     7.369   -14.102            189  GLU    0.060
  2953 HG3        -20.634     7.195   -14.974            189  GLU    0.060
  2954 CD         -21.920     8.672   -15.793            189  GLU    0.700
  2955 OE1        -21.654     8.211   -16.907            189  GLU   -0.800
  2956 OE2        -22.734     9.591   -15.658            189  GLU   -0.800
  2957 C          -18.876     7.076   -13.124            189  GLU    0.500
  2958 O          -19.122     5.923   -13.203            189  GLU   -0.500
  2959 N          -17.686     7.561   -13.540            190  ASP   -0.500
  2960 H          -17.617     8.554   -13.710            190  ASP    0.300
  2961 CA         -16.743     6.717   -14.259            190  ASP    0.140
  2962 HA         -17.312     5.925   -14.746            190  ASP    0.060
  2963 CB         -15.929     7.535   -15.375            190  ASP   -0.220
  2964 HB2        -16.606     8.138   -15.981            190  ASP    0.060
  2965 HB3        -15.237     8.226   -14.895            190  ASP    0.060
  2966 CG         -15.105     6.569   -16.309            190  ASP    0.700
  2967 OD1        -15.731     5.634   -16.876            190  ASP   -0.800
  2968 OD2        -13.915     6.865   -16.428            190  ASP   -0.800
  2969 C          -15.793     6.048   -13.212            190  ASP    0.500
  2970 O          -14.587     6.272   -13.242            190  ASP   -0.500
  2971 N          -16.371     5.404   -12.183            191  THR   -0.500
  2972 H          -17.299     5.028   -12.317            191  THR    0.300
  2973 CA         -15.610     4.867   -11.088            191  THR    0.140
  2974 HA         -14.690     5.452   -11.076            191  THR    0.060
  2975 CB         -16.356     5.187    -9.745            191  THR    0.205
  2976 HB         -16.726     6.212    -9.777            191  THR    0.060
  2977 CG2        -17.562     4.212    -9.487            191  THR   -0.180
  2978 HG21       -18.511     4.720    -9.656            191  THR    0.060
  2979 HG22       -17.555     3.855    -8.457            191  THR    0.060
  2980 HG23       -17.516     3.347   -10.148            191  THR    0.060
  2981 OG1        -15.421     5.096    -8.684            191  THR   -0.683
  2982 HG1        -15.275     4.183    -8.491            191  THR    0.418
  2983 C          -15.135     3.400   -11.210            191  THR    0.500
  2984 O          -15.495     2.763   -12.223            191  THR   -0.500
  2985 N          -14.392     2.887   -10.224            192  MET   -0.500
  2986 H          -14.422     3.364    -9.334            192  MET    0.300
  2987 CA         -14.005     1.499   -10.182            192  MET    0.140
  2988 HA         -14.875     0.874   -10.382            192  MET    0.060
  2989 CB         -12.876     1.232   -11.244            192  MET   -0.120
  2990 HB2        -12.804     0.168   -11.470            192  MET    0.060
  2991 HB3        -13.213     1.715   -12.162            192  MET    0.060
  2992 CG         -11.469     1.832   -10.982            192  MET    0.098
  2993 HG2        -11.535     2.907   -10.812            192  MET    0.060
  2994 HG3        -10.956     1.708   -11.936            192  MET    0.060
  2995 SD         -10.351     1.054    -9.666            192  MET   -0.435
  2996 CE         -10.184    -0.679   -10.432            192  MET    0.037
  2997 HE1        -10.345    -0.618   -11.508            192  MET    0.060
  2998 HE2        -10.948    -1.336   -10.017            192  MET    0.060
  2999 HE3         -9.198    -1.101   -10.236            192  MET    0.060
  3000 C          -13.498     1.218    -8.801            192  MET    0.500
  3001 O          -13.007     2.145    -8.168            192  MET   -0.500
  3002 N          -13.537    -0.044    -8.340            193  TYR   -0.500
  3003 H          -13.720    -0.795    -8.990            193  TYR    0.300
  3004 CA         -13.143    -0.404    -6.996            193  TYR    0.140
  3005 HA         -12.417     0.304    -6.597            193  TYR    0.060
  3006 CB         -14.417    -0.457    -6.164            193  TYR   -0.005
  3007 HB2        -14.935     0.502    -6.192            193  TYR    0.060
  3008 HB3        -15.099    -1.147    -6.661            193  TYR    0.060
  3009 CG         -14.314    -0.958    -4.660            193  TYR   -0.115
  3010 CD1        -13.094    -0.782    -3.961            193  TYR   -0.115
  3011 HD1        -12.337    -0.134    -4.378            193  TYR    0.115
  3012 CE1        -13.029    -1.122    -2.591            193  TYR   -0.115
  3013 HE1        -12.073    -1.286    -2.117            193  TYR    0.115
  3014 CZ         -14.193    -1.526    -1.967            193  TYR    0.150
  3015 OH         -14.219    -1.705    -0.605            193  TYR   -0.585
  3016 HH         -14.787    -2.411    -0.337            193  TYR    0.435
  3017 CE2        -15.357    -1.743    -2.649            193  TYR   -0.115
  3018 HE2        -16.150    -2.312    -2.186            193  TYR    0.115
  3019 CD2        -15.398    -1.493    -4.015            193  TYR   -0.115
  3020 HD2        -16.261    -1.800    -4.587            193  TYR    0.115
  3021 C          -12.559    -1.760    -7.113            193  TYR    0.500
  3022 O          -13.056    -2.621    -7.908            193  TYR   -0.500
  3023 N          -11.480    -1.977    -6.410            194  GLN   -0.500
  3024 H          -11.054    -1.191    -5.939            194  GLN    0.300
  3025 CA         -10.836    -3.257    -6.248            194  GLN    0.140
  3026 HA         -11.611    -4.023    -6.287            194  GLN    0.060
  3027 CB          -9.832    -3.513    -7.372            194  GLN   -0.120
  3028 HB2        -10.275    -3.287    -8.342            194  GLN    0.060
  3029 HB3         -8.973    -2.882    -7.142            194  GLN    0.060
  3030 CG          -9.305    -4.961    -7.339            194  GLN   -0.120
  3031 HG2         -8.919    -5.207    -6.350            194  GLN    0.060
  3032 HG3        -10.154    -5.583    -7.621            194  GLN    0.060
  3033 CD          -8.169    -5.194    -8.424            194  GLN    0.500
  3034 OE1         -7.999    -4.396    -9.402            194  GLN   -0.500
  3035 NE2         -7.552    -6.295    -8.335            194  GLN   -0.760
  3036 HE21        -7.202    -6.743    -9.170            194  GLN    0.380
  3037 HE22        -7.257    -6.627    -7.428            194  GLN    0.380
  3038 C          -10.206    -3.316    -4.875            194  GLN    0.500
  3039 O           -9.492    -2.413    -4.499            194  GLN   -0.500
  3040 N          -10.411    -4.423    -4.232            195  ASN   -0.500
  3041 H          -10.754    -5.218    -4.752            195  ASN    0.300
  3042 CA          -9.609    -4.703    -3.063            195  ASN    0.140
  3043 HA          -9.093    -3.807    -2.717            195  ASN    0.060
  3044 CB         -10.350    -5.423    -1.933            195  ASN   -0.120
  3045 HB2         -9.658    -5.714    -1.143            195  ASN    0.060
  3046 HB3        -10.801    -6.340    -2.312            195  ASN    0.060
  3047 CG         -11.498    -4.512    -1.321            195  ASN    0.500
  3048 OD1        -11.245    -3.649    -0.438            195  ASN   -0.500
  3049 ND2        -12.727    -4.751    -1.687            195  ASN   -0.760
  3050 HD21       -13.391    -5.105    -1.014            195  ASN    0.380
  3051 HD22       -13.089    -4.223    -2.468            195  ASN    0.380
  3052 C           -8.644    -5.662    -3.724            195  ASN    0.500
  3053 O           -9.088    -6.610    -4.323            195  ASN   -0.500
  3054 N           -7.346    -5.340    -3.818            196  MET   -0.500
  3055 H           -6.949    -4.795    -3.066            196  MET    0.300
  3056 CA          -6.400    -6.195    -4.570            196  MET    0.140
  3057 HA          -6.569    -6.057    -5.638            196  MET    0.060
  3058 CB          -5.009    -5.601    -4.371            196  MET   -0.120
  3059 HB2         -4.665    -5.760    -3.349            196  MET    0.060
  3060 HB3         -4.320    -6.190    -4.976            196  MET    0.060
  3061 CG          -4.826    -4.103    -4.789            196  MET    0.098
  3062 HG2         -5.156    -3.438    -3.991            196  MET    0.060
  3063 HG3         -3.755    -3.918    -4.871            196  MET    0.060
  3064 SD          -5.580    -3.535    -6.437            196  MET   -0.435
  3065 CE          -4.656    -4.542    -7.578            196  MET    0.037
  3066 HE1         -5.307    -5.312    -7.992            196  MET    0.060
  3067 HE2         -4.303    -3.925    -8.404            196  MET    0.060
  3068 HE3         -3.805    -5.013    -7.086            196  MET    0.060
  3069 C           -6.277    -7.742    -4.212            196  MET    0.500
  3070 O           -6.081    -8.490    -5.195            196  MET   -0.500
  3071 N           -6.674    -8.200    -3.009            197  PRO   -0.140
  3072 CD          -6.686    -7.620    -1.689            197  PRO   -0.050
  3073 HD2         -7.664    -7.179    -1.495            197  PRO    0.060
  3074 HD3         -5.917    -6.854    -1.594            197  PRO    0.060
  3075 CG          -6.444    -8.760    -0.793            197  PRO   -0.120
  3076 HG2         -6.752    -8.521     0.225            197  PRO    0.060
  3077 HG3         -5.400    -9.073    -0.798            197  PRO    0.060
  3078 CB          -7.339    -9.783    -1.384            197  PRO   -0.120
  3079 HB2         -8.384    -9.517    -1.227            197  PRO    0.060
  3080 HB3         -6.953   -10.755    -1.076            197  PRO    0.060
  3081 CA          -6.956    -9.640    -2.874            197  PRO    0.010
  3082 HA          -6.058   -10.214    -3.101            197  PRO    0.060
  3083 C           -8.147   -10.213    -3.650            197  PRO    0.500
  3084 O           -8.292   -11.435    -3.579            197  PRO   -0.500
  3085 N           -8.925    -9.361    -4.335            198  LEU   -0.500
  3086 H           -8.950    -8.401    -4.022            198  LEU    0.300
  3087 CA         -10.087    -9.808    -5.118            198  LEU    0.140
  3088 HA         -10.058   -10.896    -5.183            198  LEU    0.060
  3089 CB         -11.318    -9.539    -4.187            198  LEU   -0.120
  3090 HB2        -12.228    -9.427    -4.777            198  LEU    0.060
  3091 HB3        -11.168    -8.537    -3.784            198  LEU    0.060
  3092 CG         -11.571   -10.438    -2.973            198  LEU   -0.060
  3093 HG         -10.675   -10.455    -2.353            198  LEU    0.060
  3094 CD1        -12.736    -9.838    -2.152            198  LEU   -0.180
  3095 HD11       -13.514    -9.452    -2.811            198  LEU    0.060
  3096 HD12       -13.188   -10.597    -1.513            198  LEU    0.060
  3097 HD13       -12.390    -9.022    -1.518            198  LEU    0.060
  3098 CD2        -11.872   -11.805    -3.411            198  LEU   -0.180
  3099 HD21       -12.943   -11.932    -3.567            198  LEU    0.060
  3100 HD22       -11.558   -12.528    -2.658            198  LEU    0.060
  3101 HD23       -11.302   -11.933    -4.331            198  LEU    0.060
  3102 C          -10.277    -9.155    -6.527            198  LEU    0.500
  3103 O           -9.638    -8.125    -6.770            198  LEU   -0.500
  3104 N          -11.090    -9.777    -7.437            199  PRO   -0.140
  3105 CD         -11.839   -11.014    -7.441            199  PRO   -0.050
  3106 HD2        -11.260   -11.790    -6.941            199  PRO    0.060
  3107 HD3        -12.809   -10.897    -6.957            199  PRO    0.060
  3108 CG         -11.955   -11.302    -8.915            199  PRO   -0.120
  3109 HG2        -12.834   -11.913    -9.119            199  PRO    0.060
  3110 HG3        -10.983   -11.684    -9.228            199  PRO    0.060
  3111 CB         -12.090    -9.971    -9.537            199  PRO   -0.120
  3112 HB2        -11.780   -10.002   -10.582            199  PRO    0.060
  3113 HB3        -13.123    -9.624    -9.498            199  PRO    0.060
  3114 CA         -11.193    -9.074    -8.747            199  PRO    0.010
  3115 HA         -10.204    -9.034    -9.204            199  PRO    0.060
  3116 C          -11.764    -7.685    -8.705            199  PRO    0.500
  3117 O          -12.424    -7.284    -7.728            199  PRO   -0.500
  3118 N          -11.479    -6.795    -9.701            200  PRO   -0.140
  3119 CD         -10.444    -6.910   -10.753            200  PRO   -0.050
  3120 HD2         -9.465    -6.690   -10.327            200  PRO    0.060
  3121 HD3        -10.557    -7.849   -11.294            200  PRO    0.060
  3122 CG         -10.838    -5.862   -11.727            200  PRO   -0.120
  3123 HG2        -11.684    -6.193   -12.330            200  PRO    0.060
  3124 HG3         -9.936    -5.506   -12.225            200  PRO    0.060
  3125 CB         -11.234    -4.758   -10.833            200  PRO   -0.120
  3126 HB2        -10.357    -4.290   -10.386            200  PRO    0.060
  3127 HB3        -11.942    -4.144   -11.389            200  PRO    0.060
  3128 CA         -12.076    -5.487    -9.756            200  PRO    0.010
  3129 HA         -11.998    -4.994    -8.787            200  PRO    0.060
  3130 C          -13.530    -5.498   -10.233            200  PRO    0.500
  3131 O          -14.050    -6.420   -10.828            200  PRO   -0.500
  3132 N          -14.151    -4.312    -9.937            201  ALA   -0.500
  3133 H          -13.881    -3.861    -9.075            201  ALA    0.300
  3134 CA         -15.485    -3.958   -10.436            201  ALA    0.140
  3135 HA         -15.803    -4.670   -11.197            201  ALA    0.060
  3136 CB         -16.406    -3.969    -9.262            201  ALA   -0.180
  3137 HB1        -17.009    -3.062    -9.237            201  ALA    0.060
  3138 HB2        -15.842    -4.017    -8.331            201  ALA    0.060
  3139 HB3        -17.075    -4.829    -9.299            201  ALA    0.060
  3140 C          -15.391    -2.587   -11.019            201  ALA    0.500
  3141 O          -14.669    -1.746   -10.481            201  ALA   -0.500
  3142 N          -16.073    -2.357   -12.096            202  TYR   -0.500
  3143 H          -16.299    -3.139   -12.694            202  TYR    0.300
  3144 CA         -16.026    -1.033   -12.737            202  TYR    0.140
  3145 HA         -15.386    -0.351   -12.177            202  TYR    0.060
  3146 CB         -15.473    -1.218   -14.183            202  TYR   -0.005
  3147 HB2        -15.839    -0.428   -14.838            202  TYR    0.060
  3148 HB3        -15.829    -2.181   -14.548            202  TYR    0.060
  3149 CG         -13.958    -1.259   -14.239            202  TYR   -0.115
  3150 CD1        -13.290    -0.112   -14.376            202  TYR   -0.115
  3151 HD1        -13.815     0.720   -14.822            202  TYR    0.115
  3152 CE1        -11.898    -0.101   -14.447            202  TYR   -0.115
  3153 HE1        -11.379     0.806   -14.721            202  TYR    0.115
  3154 CZ         -11.223    -1.312   -14.446            202  TYR    0.150
  3155 OH          -9.842    -1.355   -14.559            202  TYR   -0.585
  3156 HH          -9.450    -2.037   -14.035            202  TYR    0.435
  3157 CE2        -11.902    -2.528   -14.304            202  TYR   -0.115
  3158 HE2        -11.422    -3.454   -14.582            202  TYR    0.115
  3159 CD2        -13.259    -2.461   -14.206            202  TYR   -0.115
  3160 HD2        -13.805    -3.348   -14.492            202  TYR    0.115
  3161 C          -17.502    -0.529   -12.772            202  TYR    0.500
  3162 O          -18.368    -1.335   -13.022            202  TYR   -0.500
  3163 N          -17.824     0.767   -12.594            203  GLY   -0.500
  3164 H          -17.269     1.390   -13.162            203  GLY    0.300
  3165 CA         -19.188     1.292   -12.655            203  GLY    0.080
  3166 HA2        -19.815     0.608   -13.227            203  GLY    0.060
  3167 HA3        -19.178     2.244   -13.186            203  GLY    0.060
  3168 C          -19.804     1.504   -11.249            203  GLY    0.500
  3169 O          -19.669     0.574   -10.430            203  GLY   -0.500
  3170 N          -20.522     2.577   -10.989            204  ARG   -0.500
  3171 H          -20.659     3.275   -11.706            204  ARG    0.300
  3172 CA         -20.988     2.874    -9.634            204  ARG    0.140
  3173 HA         -20.111     3.035    -9.007            204  ARG    0.060
  3174 CB         -21.863     4.113    -9.596            204  ARG   -0.120
  3175 HB2        -22.463     4.132    -8.686            204  ARG    0.060
  3176 HB3        -22.587     4.038   -10.407            204  ARG    0.060
  3177 CG         -21.107     5.417    -9.764            204  ARG   -0.050
  3178 HG2        -20.693     5.495   -10.769            204  ARG    0.060
  3179 HG3        -20.238     5.387    -9.107            204  ARG    0.060
  3180 CD         -21.908     6.654    -9.418            204  ARG    0.190
  3181 HD2        -21.246     7.495    -9.212            204  ARG    0.060
  3182 HD3        -22.443     6.415    -8.499            204  ARG    0.060
  3183 NE         -22.885     7.042   -10.424            204  ARG   -0.700
  3184 HE         -23.070     6.352   -11.138            204  ARG    0.440
  3185 CZ         -23.772     8.053   -10.304            204  ARG    0.640
  3186 NH1        -23.806     8.733    -9.198            204  ARG   -0.800
  3187 HH11       -23.025     8.696    -8.558            204  ARG    0.460
  3188 HH12       -24.709     8.988    -8.824            204  ARG    0.460
  3189 NH2        -24.648     8.368   -11.253            204  ARG   -0.800
  3190 HH21       -25.364     9.057   -11.071            204  ARG    0.460
  3191 HH22       -24.407     8.182   -12.216            204  ARG    0.460
  3192 C          -21.762     1.680    -9.061            204  ARG    0.500
  3193 O          -21.552     1.299    -7.929            204  ARG   -0.500
  3194 N          -22.699     1.133    -9.813            205  ASP   -0.500
  3195 H          -22.561     1.168   -10.813            205  ASP    0.300
  3196 CA         -23.562     0.085    -9.324            205  ASP    0.140
  3197 HA         -24.103     0.460    -8.455            205  ASP    0.060
  3198 CB         -24.593    -0.432   -10.331            205  ASP   -0.220
  3199 HB2        -25.037    -1.365    -9.984            205  ASP    0.060
  3200 HB3        -24.032    -0.572   -11.255            205  ASP    0.060
  3201 CG         -25.719     0.625   -10.572            205  ASP    0.700
  3202 OD1        -26.561     0.830    -9.700            205  ASP   -0.800
  3203 OD2        -25.791     1.257   -11.668            205  ASP   -0.800
  3204 C          -22.649    -1.065    -8.825            205  ASP    0.500
  3205 O          -22.967    -1.778    -7.910            205  ASP   -0.500
  3206 N          -21.608    -1.381    -9.596            206  ALA   -0.500
  3207 H          -21.511    -0.952   -10.505            206  ALA    0.300
  3208 CA         -20.879    -2.629    -9.334            206  ALA    0.140
  3209 HA         -21.588    -3.431    -9.127            206  ALA    0.060
  3210 CB         -20.014    -2.974   -10.499            206  ALA   -0.180
  3211 HB1        -19.181    -2.276   -10.580            206  ALA    0.060
  3212 HB2        -20.582    -2.924   -11.428            206  ALA    0.060
  3213 HB3        -19.607    -3.980   -10.402            206  ALA    0.060
  3214 C          -20.046    -2.356    -8.099            206  ALA    0.500
  3215 O          -19.894    -3.209    -7.214            206  ALA   -0.500
  3216 N          -19.524    -1.126    -7.935            207  VAL   -0.500
  3217 H          -19.524    -0.513    -8.738            207  VAL    0.300
  3218 CA         -18.732    -0.672    -6.776            207  VAL    0.140
  3219 HA         -17.853    -1.303    -6.645            207  VAL    0.060
  3220 CB         -18.344     0.829    -6.946            207  VAL   -0.060
  3221 HB         -19.216     1.373    -7.308            207  VAL    0.060
  3222 CG1        -17.924     1.424    -5.635            207  VAL   -0.180
  3223 HG11       -17.050     0.906    -5.239            207  VAL    0.060
  3224 HG12       -18.724     1.341    -4.899            207  VAL    0.060
  3225 HG13       -17.673     2.479    -5.746            207  VAL    0.060
  3226 CG2        -17.220     0.983    -7.966            207  VAL   -0.180
  3227 HG21       -16.271     0.647    -7.548            207  VAL    0.060
  3228 HG22       -17.105     2.026    -8.260            207  VAL    0.060
  3229 HG23       -17.422     0.398    -8.863            207  VAL    0.060
  3230 C          -19.691    -0.853    -5.615            207  VAL    0.500
  3231 O          -19.379    -1.483    -4.604            207  VAL   -0.500
  3232 N          -20.919    -0.366    -5.763            208  GLU   -0.500
  3233 H          -21.007     0.447    -6.356            208  GLU    0.300
  3234 CA         -21.903    -0.444    -4.709            208  GLU    0.140
  3235 HA         -21.510     0.078    -3.837            208  GLU    0.060
  3236 CB         -23.100     0.363    -5.181            208  GLU   -0.120
  3237 HB2        -23.655    -0.184    -5.943            208  GLU    0.060
  3238 HB3        -22.723     1.318    -5.547            208  GLU    0.060
  3239 CG         -24.008     0.720    -4.003            208  GLU   -0.220
  3240 HG2        -23.475     1.337    -3.279            208  GLU    0.060
  3241 HG3        -24.333    -0.201    -3.520            208  GLU    0.060
  3242 CD         -25.257     1.433    -4.451            208  GLU    0.700
  3243 OE1        -25.270     2.170    -5.472            208  GLU   -0.800
  3244 OE2        -26.344     1.239    -3.845            208  GLU   -0.800
  3245 C          -22.219    -1.905    -4.309            208  GLU    0.500
  3246 O          -22.291    -2.219    -3.129            208  GLU   -0.500
  3247 N          -22.367    -2.837    -5.270            209  GLN   -0.500
  3248 H          -21.862    -2.710    -6.136            209  GLN    0.300
  3249 CA         -22.685    -4.199    -4.925            209  GLN    0.140
  3250 HA         -23.510    -4.188    -4.213            209  GLN    0.060
  3251 CB         -23.159    -4.908    -6.187            209  GLN   -0.120
  3252 HB2        -22.437    -4.782    -6.993            209  GLN    0.060
  3253 HB3        -23.244    -5.956    -5.900            209  GLN    0.060
  3254 CG         -24.551    -4.495    -6.643            209  GLN   -0.120
  3255 HG2        -25.301    -4.789    -5.909            209  GLN    0.060
  3256 HG3        -24.593    -3.406    -6.680            209  GLN    0.060
  3257 CD         -24.954    -5.006    -8.016            209  GLN    0.500
  3258 OE1        -24.778    -6.166    -8.301            209  GLN   -0.500
  3259 NE2        -25.457    -4.151    -8.900            209  GLN   -0.760
  3260 HE21       -26.149    -4.466    -9.565            209  GLN    0.380
  3261 HE22       -25.455    -3.171    -8.655            209  GLN    0.380
  3262 C          -21.435    -4.881    -4.324            209  GLN    0.500
  3263 O          -21.606    -5.726    -3.432            209  GLN   -0.500
  3264 N          -20.241    -4.446    -4.690            210  THR   -0.500
  3265 H          -20.202    -3.672    -5.338            210  THR    0.300
  3266 CA         -18.957    -4.875    -4.098            210  THR    0.140
  3267 HA         -18.941    -5.965    -4.124            210  THR    0.060
  3268 CB         -17.690    -4.348    -4.825            210  THR    0.205
  3269 HB         -17.708    -3.262    -4.729            210  THR    0.060
  3270 CG2        -16.408    -4.829    -4.135            210  THR   -0.180
  3271 HG21       -16.318    -4.391    -3.141            210  THR    0.060
  3272 HG22       -16.417    -5.913    -4.020            210  THR    0.060
  3273 HG23       -15.525    -4.553    -4.711            210  THR    0.060
  3274 OG1        -17.701    -4.728    -6.185            210  THR   -0.683
  3275 HG1        -18.243    -5.496    -6.277            210  THR    0.418
  3276 C          -18.892    -4.443    -2.590            210  THR    0.500
  3277 O          -18.687    -5.272    -1.730            210  THR   -0.500
  3278 N          -19.184    -3.142    -2.323            211  LEU   -0.500
  3279 H          -19.631    -2.599    -3.048            211  LEU    0.300
  3280 CA         -19.260    -2.623    -0.983            211  LEU    0.140
  3281 HA         -18.276    -2.716    -0.523            211  LEU    0.060
  3282 CB         -19.669    -1.136    -1.037            211  LEU   -0.120
  3283 HB2        -20.373    -0.961    -1.850            211  LEU    0.060
  3284 HB3        -20.255    -0.939    -0.140            211  LEU    0.060
  3285 CG         -18.501    -0.059    -1.066            211  LEU   -0.060
  3286 HG         -17.695    -0.392    -1.720            211  LEU    0.060
  3287 CD1        -19.052     1.277    -1.549            211  LEU   -0.180
  3288 HD11       -18.256     2.017    -1.625            211  LEU    0.060
  3289 HD12       -19.504     1.172    -2.535            211  LEU    0.060
  3290 HD13       -19.810     1.660    -0.865            211  LEU    0.060
  3291 CD2        -17.985     0.054     0.422            211  LEU   -0.180
  3292 HD21       -17.178     0.783     0.495            211  LEU    0.060
  3293 HD22       -17.600    -0.905     0.769            211  LEU    0.060
  3294 HD23       -18.787     0.364     1.092            211  LEU    0.060
  3295 C          -20.270    -3.475    -0.156            211  LEU    0.500
  3296 O          -19.966    -3.832     0.988            211  LEU   -0.500
  3297 N          -21.438    -3.761    -0.740            212  ALA   -0.500
  3298 H          -21.437    -3.944    -1.733            212  ALA    0.300
  3299 CA         -22.474    -4.406     0.025            212  ALA    0.140
  3300 HA         -22.682    -3.851     0.940            212  ALA    0.060
  3301 CB         -23.692    -4.401    -0.745            212  ALA   -0.180
  3302 HB1        -24.528    -4.049    -0.141            212  ALA    0.060
  3303 HB2        -23.601    -3.737    -1.604            212  ALA    0.060
  3304 HB3        -23.863    -5.434    -1.048            212  ALA    0.060
  3305 C          -22.060    -5.889     0.364            212  ALA    0.500
  3306 O          -22.244    -6.313     1.467            212  ALA   -0.500
  3307 N          -21.518    -6.601    -0.579            213  GLY   -0.500
  3308 H          -21.285    -6.172    -1.463            213  GLY    0.300
  3309 CA         -21.103    -7.991    -0.344            213  GLY    0.080
  3310 HA2        -20.662    -8.397    -1.254            213  GLY    0.060
  3311 HA3        -21.992    -8.586    -0.133            213  GLY    0.060
  3312 C          -20.112    -8.161     0.829            213  GLY    0.500
  3313 O          -20.156    -9.171     1.586            213  GLY   -0.500
  3314 N          -19.287    -7.140     1.050            214  LEU   -0.500
  3315 H          -19.123    -6.473     0.309            214  LEU    0.300
  3316 CA         -18.394    -7.120     2.179            214  LEU    0.140
  3317 HA         -17.949    -8.111     2.269            214  LEU    0.060
  3318 CB         -17.202    -6.115     1.992            214  LEU   -0.120
  3319 HB2        -17.508    -5.101     2.248            214  LEU    0.060
  3320 HB3        -16.456    -6.446     2.715            214  LEU    0.060
  3321 CG         -16.460    -6.136     0.666            214  LEU   -0.060
  3322 HG         -17.172    -6.125    -0.159            214  LEU    0.060
  3323 CD1        -15.502    -4.959     0.514            214  LEU   -0.180
  3324 HD11       -16.049    -4.016     0.517            214  LEU    0.060
  3325 HD12       -14.788    -4.934     1.337            214  LEU    0.060
  3326 HD13       -14.943    -5.026    -0.420            214  LEU    0.060
  3327 CD2        -15.584    -7.422     0.534            214  LEU   -0.180
  3328 HD21       -16.122    -8.201    -0.006            214  LEU    0.060
  3329 HD22       -14.668    -7.209    -0.017            214  LEU    0.060
  3330 HD23       -15.310    -7.813     1.514            214  LEU    0.060
  3331 C          -19.199    -6.838     3.482            214  LEU    0.500
  3332 O          -19.151    -7.594     4.465            214  LEU   -0.500
  3333 N          -20.047    -5.815     3.470            215  PHE   -0.500
  3334 H          -19.953    -5.106     2.757            215  PHE    0.300
  3335 CA         -20.913    -5.529     4.601            215  PHE    0.140
  3336 HA         -20.263    -5.301     5.446            215  PHE    0.060
  3337 CB         -21.836    -4.266     4.327            215  PHE   -0.005
  3338 HB2        -22.590    -4.164     5.108            215  PHE    0.060
  3339 HB3        -22.383    -4.420     3.397            215  PHE    0.060
  3340 CG         -21.074    -2.987     4.202            215  PHE   -0.115
  3341 CD1        -20.052    -2.684     5.159            215  PHE   -0.115
  3342 HD1        -20.085    -3.196     6.109            215  PHE    0.115
  3343 CE1        -19.363    -1.477     5.093            215  PHE   -0.115
  3344 HE1        -18.421    -1.405     5.616            215  PHE    0.115
  3345 CZ         -19.593    -0.574     4.065            215  PHE   -0.115
  3346 HZ         -18.998     0.323     3.976            215  PHE    0.115
  3347 CE2        -20.604    -0.848     3.148            215  PHE   -0.115
  3348 HE2        -21.039    -0.022     2.605            215  PHE    0.115
  3349 CD2        -21.276    -2.051     3.149            215  PHE   -0.115
  3350 HD2        -22.152    -2.156     2.526            215  PHE    0.115
  3351 C          -21.793    -6.696     5.023            215  PHE    0.500
  3352 O          -22.090    -6.858     6.199            215  PHE   -0.500
  3353 N          -22.278    -7.486     4.036            216  LYS   -0.500
  3354 H          -21.736    -7.529     3.185            216  LYS    0.300
  3355 CA         -23.122    -8.674     4.310            216  LYS    0.140
  3356 HA         -24.017    -8.342     4.836            216  LYS    0.060
  3357 CB         -23.517    -9.352     3.012            216  LYS   -0.120
  3358 HB2        -22.663    -9.420     2.338            216  LYS    0.060
  3359 HB3        -23.804   -10.381     3.229            216  LYS    0.060
  3360 CG         -24.653    -8.671     2.350            216  LYS   -0.120
  3361 HG2        -24.441    -7.611     2.214            216  LYS    0.060
  3362 HG3        -25.495    -8.866     3.014            216  LYS    0.060
  3363 CD         -24.994    -9.340     0.995            216  LYS   -0.120
  3364 HD2        -25.602   -10.231     1.148            216  LYS    0.060
  3365 HD3        -24.031    -9.607     0.559            216  LYS    0.060
  3366 CE         -25.714    -8.344     0.080            216  LYS    0.190
  3367 HE2        -26.492    -7.812     0.627            216  LYS    0.060
  3368 HE3        -24.931    -7.709    -0.335            216  LYS    0.060
  3369 NZ         -26.343    -9.130    -1.066            216  LYS   -0.300
  3370 HZ1        -26.996    -9.804    -0.693            216  LYS    0.330
  3371 HZ2        -25.620    -9.611    -1.582            216  LYS    0.330
  3372 HZ3        -26.830    -8.495    -1.682            216  LYS    0.330
  3373 C          -22.400    -9.724     5.193            216  LYS    0.500
  3374 O          -23.148   -10.489     5.801            216  LYS   -0.500
  3375 N          -21.067    -9.750     5.318            217  VAL   -0.500
  3376 H          -20.525    -9.049     4.834            217  VAL    0.300
  3377 CA         -20.330   -10.730     6.118            217  VAL    0.140
  3378 HA         -21.068   -11.285     6.698            217  VAL    0.060
  3379 CB         -19.542   -11.735     5.238            217  VAL   -0.060
  3380 HB         -19.029   -12.440     5.892            217  VAL    0.060
  3381 CG1        -20.507   -12.533     4.304            217  VAL   -0.180
  3382 HG11       -21.447   -12.745     4.813            217  VAL    0.060
  3383 HG12       -20.063   -13.486     4.017            217  VAL    0.060
  3384 HG13       -20.706   -11.958     3.400            217  VAL    0.060
  3385 CG2        -18.513   -11.043     4.373            217  VAL   -0.180
  3386 HG21       -18.911   -10.112     3.970            217  VAL    0.060
  3387 HG22       -18.227   -11.676     3.533            217  VAL    0.060
  3388 HG23       -17.615   -10.809     4.945            217  VAL    0.060
  3389 C          -19.345   -10.099     7.129            217  VAL    0.500
  3390 O          -18.753   -10.886     7.917            217  VAL   -0.500
  3391 N          -19.239    -8.803     7.254            218  MET   -0.500
  3392 H          -19.523    -8.236     6.468            218  MET    0.300
  3393 CA         -18.483    -8.119     8.298            218  MET    0.140
  3394 HA         -18.571    -8.669     9.235            218  MET    0.060
  3395 CB         -16.985    -8.076     7.979            218  MET   -0.120
  3396 HB2        -16.524    -9.046     8.166            218  MET    0.060
  3397 HB3        -16.524    -7.421     8.718            218  MET    0.060
  3398 CG         -16.585    -7.548     6.610            218  MET    0.098
  3399 HG2        -16.944    -8.209     5.822            218  MET    0.060
  3400 HG3        -17.024    -6.565     6.438            218  MET    0.060
  3401 SD         -14.799    -7.423     6.516            218  MET   -0.435
  3402 CE         -14.564    -7.414     4.763            218  MET    0.037
  3403 HE1        -13.513    -7.594     4.538            218  MET    0.060
  3404 HE2        -14.828    -6.434     4.365            218  MET    0.060
  3405 HE3        -15.185    -8.196     4.326            218  MET    0.060
  3406 C          -18.991    -6.685     8.501            218  MET    0.500
  3407 O          -19.621    -6.182     7.575            218  MET   -0.500
  3408 N          -18.821    -6.135     9.682            219  SER   -0.500
  3409 H          -18.765    -6.747    10.484            219  SER    0.300
  3410 CA         -19.291    -4.759     9.947            219  SER    0.140
  3411 HA         -19.717    -4.357     9.028            219  SER    0.060
  3412 CB         -20.370    -4.806    11.064            219  SER    0.145
  3413 HB2        -19.938    -5.155    12.002            219  SER    0.060
  3414 HB3        -21.146    -5.467    10.678            219  SER    0.060
  3415 OG         -20.908    -3.468    11.247            219  SER   -0.683
  3416 HG         -20.583    -2.917    10.552            219  SER    0.418
  3417 C          -18.050    -3.985    10.360            219  SER    0.500
  3418 O          -17.250    -4.460    11.152            219  SER   -0.500
  3419 N          -17.915    -2.798     9.774            220  ILE   -0.500
  3420 H          -18.371    -2.635     8.888            220  ILE    0.300
  3421 CA         -16.817    -1.893    10.157            220  ILE    0.140
  3422 HA         -15.906    -2.485    10.248            220  ILE    0.060
  3423 CB         -16.661    -0.820     9.059            220  ILE   -0.060
  3424 HB         -17.640    -0.422     8.792            220  ILE    0.060
  3425 CG2        -15.765     0.310     9.557            220  ILE   -0.180
  3426 HG21       -15.691     1.101     8.810            220  ILE    0.060
  3427 HG22       -14.757    -0.056     9.754            220  ILE    0.060
  3428 HG23       -16.156     0.745    10.477            220  ILE    0.060
  3429 CG1        -15.984    -1.452     7.791            220  ILE   -0.120
  3430 HG12       -15.049    -1.943     8.061            220  ILE    0.060
  3431 HG13       -16.618    -2.300     7.531            220  ILE    0.060
  3432 CD1        -15.833    -0.718     6.565            220  ILE   -0.180
  3433 HD11       -16.231     0.291     6.669            220  ILE    0.060
  3434 HD12       -14.781    -0.637     6.291            220  ILE    0.060
  3435 HD13       -16.360    -1.209     5.747            220  ILE    0.060
  3436 C          -17.221    -1.351    11.513            220  ILE    0.500
  3437 O          -18.336    -0.837    11.689            220  ILE   -0.500
  3438 N          -16.345    -1.593    12.495            221  ASP   -0.500
  3439 H          -15.414    -1.905    12.257            221  ASP    0.300
  3440 CA         -16.585    -1.178    13.853            221  ASP    0.140
  3441 HA         -17.652    -1.265    14.058            221  ASP    0.060
  3442 CB         -15.984    -2.282    14.795            221  ASP   -0.220
  3443 HB2        -16.294    -3.275    14.470            221  ASP    0.060
  3444 HB3        -14.900    -2.190    14.733            221  ASP    0.060
  3445 CG         -16.355    -2.091    16.227            221  ASP    0.700
  3446 OD1        -17.214    -2.880    16.713            221  ASP   -0.800
  3447 OD2        -15.754    -1.296    16.940            221  ASP   -0.800
  3448 C          -16.039     0.192    14.260            221  ASP    0.500
  3449 O          -16.727     0.996    14.955            221  ASP   -0.500
  3450 N          -14.875     0.563    13.706            222  ALA   -0.500
  3451 H          -14.217    -0.171    13.483            222  ALA    0.300
  3452 CA         -14.304     1.889    13.883            222  ALA    0.140
  3453 HA         -15.072     2.644    13.716            222  ALA    0.060
  3454 CB         -13.697     2.040    15.234            222  ALA   -0.180
  3455 HB1        -12.691     1.620    15.255            222  ALA    0.060
  3456 HB2        -14.291     1.517    15.983            222  ALA    0.060
  3457 HB3        -13.634     3.090    15.521            222  ALA    0.060
  3458 C          -13.190     2.031    12.807            222  ALA    0.500
  3459 O          -12.655     1.063    12.333            222  ALA   -0.500
  3460 N          -12.841     3.260    12.462            223  VAL   -0.500
  3461 H          -13.118     3.998    13.093            223  VAL    0.300
  3462 CA         -11.739     3.606    11.555            223  VAL    0.140
  3463 HA         -11.054     2.759    11.503            223  VAL    0.060
  3464 CB         -12.288     3.932    10.128            223  VAL   -0.060
  3465 HB         -12.851     4.863    10.188            223  VAL    0.060
  3466 CG1        -11.176     4.115     9.095            223  VAL   -0.180
  3467 HG11       -10.239     3.694     9.460            223  VAL    0.060
  3468 HG12       -11.009     5.172     8.890            223  VAL    0.060
  3469 HG13       -11.428     3.622     8.156            223  VAL    0.060
  3470 CG2        -13.231     2.836     9.624            223  VAL   -0.180
  3471 HG21       -13.924     3.234     8.883            223  VAL    0.060
  3472 HG22       -13.821     2.428    10.445            223  VAL    0.060
  3473 HG23       -12.599     2.067     9.179            223  VAL    0.060
  3474 C          -10.965     4.825    12.022            223  VAL    0.500
  3475 O          -11.553     5.894    12.399            223  VAL   -0.500
  3476 N           -9.640     4.739    11.937            224  GLU   -0.500
  3477 H           -9.231     3.889    11.577            224  GLU    0.300
  3478 CA          -8.707     5.865    12.271            224  GLU    0.140
  3479 HA          -9.307     6.775    12.299            224  GLU    0.060
  3480 CB          -7.986     5.713    13.649            224  GLU   -0.120
  3481 HB2         -8.699     5.447    14.429            224  GLU    0.060
  3482 HB3         -7.314     4.858    13.570            224  GLU    0.060
  3483 CG          -7.141     6.950    14.073            224  GLU   -0.220
  3484 HG2         -6.636     6.765    15.021            224  GLU    0.060
  3485 HG3         -6.394     7.201    13.320            224  GLU    0.060
  3486 CD          -8.141     8.105    14.240            224  GLU    0.700
  3487 OE1         -9.072     8.070    15.066            224  GLU   -0.800
  3488 OE2         -8.005     9.127    13.464            224  GLU   -0.800
  3489 C           -7.676     6.046    11.157            224  GLU    0.500
  3490 O           -6.952     5.078    10.829            224  GLU   -0.500
  3491 N           -7.668     7.206    10.526            225  VAL   -0.500
  3492 H           -8.196     7.982    10.898            225  VAL    0.300
  3493 CA          -6.767     7.454     9.438            225  VAL    0.140
  3494 HA          -6.485     6.502     8.989            225  VAL    0.060
  3495 CB          -7.362     8.414     8.340            225  VAL   -0.060
  3496 HB          -7.824     9.256     8.856            225  VAL    0.060
  3497 CG1         -6.224     8.970     7.501            225  VAL   -0.180
  3498 HG11        -5.987     8.296     6.678            225  VAL    0.060
  3499 HG12        -5.323     9.088     8.103            225  VAL    0.060
  3500 HG13        -6.516     9.943     7.107            225  VAL    0.060
  3501 CG2         -8.439     7.757     7.474            225  VAL   -0.180
  3502 HG21        -8.458     8.205     6.480            225  VAL    0.060
  3503 HG22        -9.425     7.892     7.919            225  VAL    0.060
  3504 HG23        -8.198     6.697     7.391            225  VAL    0.060
  3505 C           -5.539     8.061    10.136            225  VAL    0.500
  3506 O           -5.600     9.011    10.882            225  VAL   -0.500
  3507 N           -4.395     7.370    10.004            226  PHE   -0.500
  3508 H           -4.278     6.755     9.211            226  PHE    0.300
  3509 CA          -3.216     7.768    10.726            226  PHE    0.140
  3510 HA          -3.466     8.192    11.698            226  PHE    0.060
  3511 CB          -2.293     6.584    10.982            226  PHE   -0.005
  3512 HB2         -1.393     6.905    11.506            226  PHE    0.060
  3513 HB3         -1.999     6.158    10.023            226  PHE    0.060
  3514 CG          -2.956     5.482    11.755            226  PHE   -0.115
  3515 CD1         -3.625     5.678    12.967            226  PHE   -0.115
  3516 HD1         -3.986     6.670    13.196            226  PHE    0.115
  3517 CE1         -4.168     4.614    13.661            226  PHE   -0.115
  3518 HE1         -4.570     4.774    14.651            226  PHE    0.115
  3519 CZ          -4.016     3.339    13.193            226  PHE   -0.115
  3520 HZ          -3.994     2.523    13.900            226  PHE    0.115
  3521 CE2         -3.454     3.169    11.947            226  PHE   -0.115
  3522 HE2         -3.359     2.172    11.543            226  PHE    0.115
  3523 CD2         -2.958     4.217    11.246            226  PHE   -0.115
  3524 HD2         -2.554     4.046    10.259            226  PHE    0.115
  3525 C           -2.409     8.800     9.894            226  PHE    0.500
  3526 O           -1.972     9.796    10.411            226  PHE   -0.500
  3527 N           -2.302     8.588     8.582            227  HIP   -0.500
  3528 H           -3.086     8.144     8.125            227  HIP    0.300
  3529 CA          -1.408     9.372     7.716            227  HIP    0.140
  3530 HA          -1.177    10.317     8.208            227  HIP    0.060
  3531 CB          -0.117     8.610     7.402            227  HIP   -0.005
  3532 HB2          0.505     9.178     6.710            227  HIP    0.060
  3533 HB3         -0.427     7.692     6.902            227  HIP    0.060
  3534 CG           0.709     8.221     8.628            227  HIP    0.215
  3535 ND1          1.097     6.958     8.904            227  HIP   -0.540
  3536 HD1          1.354     6.334     8.153            227  HIP    0.460
  3537 CE1          1.759     6.923    10.049            227  HIP    0.385
  3538 HE1          2.592     6.246    10.169            227  HIP    0.115
  3539 NE2          1.804     8.096    10.582            227  HIP   -0.540
  3540 HE2          1.635     8.207    11.572            227  HIP    0.460
  3541 CD2          1.186     8.948     9.673            227  HIP    0.215
  3542 HD2          1.054     9.991     9.920            227  HIP    0.115
  3543 C           -2.164     9.656     6.437            227  HIP    0.500
  3544 O           -2.941     8.817     6.012            227  HIP   -0.500
  3545 N           -1.967    10.767     5.792            228  ILE   -0.500
  3546 H           -1.151    11.327     5.995            228  ILE    0.300
  3547 CA          -2.714    11.042     4.557            228  ILE    0.140
  3548 HA          -2.982    10.111     4.058            228  ILE    0.060
  3549 CB          -4.005    11.939     4.867            228  ILE   -0.060
  3550 HB          -4.593    11.423     5.626            228  ILE    0.060
  3551 CG2         -3.658    13.315     5.409            228  ILE   -0.180
  3552 HG21        -3.469    14.014     4.594            228  ILE    0.060
  3553 HG22        -2.759    13.271     6.024            228  ILE    0.060
  3554 HG23        -4.469    13.713     6.018            228  ILE    0.060
  3555 CG1         -4.861    12.024     3.586            228  ILE   -0.120
  3556 HG12        -4.833    11.081     3.039            228  ILE    0.060
  3557 HG13        -4.422    12.766     2.918            228  ILE    0.060
  3558 CD1         -6.328    12.436     3.899            228  ILE   -0.180
  3559 HD11        -6.940    12.394     2.998            228  ILE    0.060
  3560 HD12        -6.768    11.761     4.633            228  ILE    0.060
  3561 HD13        -6.375    13.450     4.296            228  ILE    0.060
  3562 C           -1.725    11.840     3.707            228  ILE    0.500
  3563 O           -0.908    12.545     4.220            228  ILE   -0.500
  3564 N           -1.841    11.740     2.394            229  GLY   -0.500
  3565 H           -2.530    11.109     2.010            229  GLY    0.300
  3566 CA          -1.028    12.508     1.455            229  GLY    0.080
  3567 HA2         -0.076    12.001     1.298            229  GLY    0.060
  3568 HA3         -0.842    13.513     1.834            229  GLY    0.060
  3569 C           -1.785    12.557     0.164            229  GLY    0.500
  3570 O           -2.775    11.847    -0.019            229  GLY   -0.500
  3571 N           -1.284    13.478    -0.691            230  SER   -0.500
  3572 H           -0.301    13.701    -0.632            230  SER    0.300
  3573 CA          -1.927    13.697    -1.979            230  SER    0.140
  3574 HA          -2.362    12.757    -2.317            230  SER    0.060
  3575 CB          -3.024    14.761    -1.827            230  SER    0.145
  3576 HB2         -3.864    14.368    -1.254            230  SER    0.060
  3577 HB3         -3.423    15.002    -2.813            230  SER    0.060
  3578 OG          -2.563    16.001    -1.222            230  SER   -0.683
  3579 HG          -3.246    16.649    -1.307            230  SER    0.418
  3580 C           -0.988    14.236    -3.081            230  SER    0.500
  3581 O            0.181    14.597    -2.836            230  SER   -0.500
  3582 N           -1.576    14.323    -4.287            231  SER   -0.500
  3583 H           -2.420    13.781    -4.405            231  SER    0.300
  3584 CA          -1.003    14.880    -5.578            231  SER    0.140
  3585 HA          -0.352    15.719    -5.333            231  SER    0.060
  3586 CB          -0.195    13.786    -6.310            231  SER    0.145
  3587 HB2         -0.676    12.814    -6.201            231  SER    0.060
  3588 HB3         -0.199    14.002    -7.378            231  SER    0.060
  3589 OG           1.141    13.692    -5.903            231  SER   -0.683
  3590 HG           1.387    14.506    -5.492            231  SER    0.418
  3591 C           -2.164    15.379    -6.382            231  SER    0.500
  3592 O           -3.332    15.279    -5.987            231  SER   -0.500
  3593 N           -1.860    15.942    -7.564            232  LYS   -0.500
  3594 H           -0.899    15.953    -7.874            232  LYS    0.300
  3595 CA          -2.872    16.409    -8.480            232  LYS    0.140
  3596 HA          -3.430    17.239    -8.048            232  LYS    0.060
  3597 CB          -2.260    16.919    -9.832            232  LYS   -0.120
  3598 HB2         -1.398    17.560    -9.647            232  LYS    0.060
  3599 HB3         -2.041    16.047   -10.447            232  LYS    0.060
  3600 CG          -3.330    17.672   -10.602            232  LYS   -0.120
  3601 HG2         -3.519    18.644   -10.146            232  LYS    0.060
  3602 HG3         -4.194    17.008   -10.613            232  LYS    0.060
  3603 CD          -2.923    17.832   -12.056            232  LYS   -0.120
  3604 HD2         -1.943    18.302   -12.131            232  LYS    0.060
  3605 HD3         -2.811    16.843   -12.499            232  LYS    0.060
  3606 CE          -3.986    18.637   -12.879            232  LYS    0.190
  3607 HE2         -4.983    18.493   -12.463            232  LYS    0.060
  3608 HE3         -3.769    19.704   -12.821            232  LYS    0.060
  3609 NZ          -3.982    18.212   -14.363            232  LYS   -0.300
  3610 HZ1         -4.376    17.286   -14.450            232  LYS    0.330
  3611 HZ2         -4.534    18.864   -14.901            232  LYS    0.330
  3612 HZ3         -3.033    18.208   -14.709            232  LYS    0.330
  3613 C           -3.857    15.312    -8.833            232  LYS    0.500
  3614 O           -3.586    14.411    -9.650            232  LYS   -0.500
  3615 N           -5.038    15.423    -8.218            233  GLY   -0.500
  3616 H           -5.085    15.938    -7.351            233  GLY    0.300
  3617 CA          -6.103    14.471    -8.490            233  GLY    0.080
  3618 HA2         -7.049    14.871    -8.125            233  GLY    0.060
  3619 HA3         -6.245    14.339    -9.563            233  GLY    0.060
  3620 C           -5.868    13.056    -7.878            233  GLY    0.500
  3621 O           -6.452    12.076    -8.387            233  GLY   -0.500
  3622 N           -5.083    12.984    -6.822            234  LEU   -0.500
  3623 H           -4.420    13.736    -6.696            234  LEU    0.300
  3624 CA          -4.747    11.717    -6.106            234  LEU    0.140
  3625 HA          -5.482    10.951    -6.351            234  LEU    0.060
  3626 CB          -3.281    11.285    -6.606            234  LEU   -0.120
  3627 HB2         -2.654    12.163    -6.762            234  LEU    0.060
  3628 HB3         -2.859    10.736    -5.765            234  LEU    0.060
  3629 CG          -3.158    10.313    -7.790            234  LEU   -0.060
  3630 HG          -3.677    10.683    -8.674            234  LEU    0.060
  3631 CD1         -1.654    10.138    -8.043            234  LEU   -0.180
  3632 HD11        -1.459     9.960    -9.101            234  LEU    0.060
  3633 HD12        -1.268     9.284    -7.486            234  LEU    0.060
  3634 HD13        -1.177    11.055    -7.698            234  LEU    0.060
  3635 CD2         -3.712     8.970    -7.328            234  LEU   -0.180
  3636 HD21        -4.794     9.021    -7.206            234  LEU    0.060
  3637 HD22        -3.282     8.686    -6.367            234  LEU    0.060
  3638 HD23        -3.448     8.206    -8.059            234  LEU    0.060
  3639 C           -4.652    11.872    -4.585            234  LEU    0.500
  3640 O           -4.200    12.940    -4.164            234  LEU   -0.500
  3641 N           -5.054    10.926    -3.766            235  VAL   -0.500
  3642 H           -5.452    10.086    -4.162            235  VAL    0.300
  3643 CA          -4.968    11.000    -2.281            235  VAL    0.140
  3644 HA          -4.190    11.699    -1.974            235  VAL    0.060
  3645 CB          -6.356    11.333    -1.608            235  VAL   -0.060
  3646 HB          -7.116    10.658    -2.003            235  VAL    0.060
  3647 CG1         -6.321    11.214    -0.069            235  VAL   -0.180
  3648 HG11        -5.442    11.716     0.336            235  VAL    0.060
  3649 HG12        -7.202    11.680     0.372            235  VAL    0.060
  3650 HG13        -6.294    10.170     0.244            235  VAL    0.060
  3651 CG2         -6.776    12.802    -1.893            235  VAL   -0.180
  3652 HG21        -5.899    13.429    -2.054            235  VAL    0.060
  3653 HG22        -7.394    12.859    -2.789            235  VAL    0.060
  3654 HG23        -7.326    13.103    -1.002            235  VAL    0.060
  3655 C           -4.612     9.551    -1.831            235  VAL    0.500
  3656 O           -5.007     8.592    -2.454            235  VAL   -0.500
  3657 N           -3.822     9.398    -0.771            236  PHE   -0.500
  3658 H           -3.491    10.228    -0.300            236  PHE    0.300
  3659 CA          -3.373     8.087    -0.222            236  PHE    0.140
  3660 HA          -3.983     7.283    -0.634            236  PHE    0.060
  3661 CB          -1.872     7.840    -0.495            236  PHE   -0.005
  3662 HB2         -1.519     6.968     0.055            236  PHE    0.060
  3663 HB3         -1.352     8.710    -0.094            236  PHE    0.060
  3664 CG          -1.490     7.702    -1.969            236  PHE   -0.115
  3665 CD1         -1.338     8.791    -2.805            236  PHE   -0.115
  3666 HD1         -1.646     9.771    -2.471            236  PHE    0.115
  3667 CE1         -0.920     8.610    -4.114            236  PHE   -0.115
  3668 HE1         -0.946     9.437    -4.808            236  PHE    0.115
  3669 CZ          -0.620     7.309    -4.577            236  PHE   -0.115
  3670 HZ          -0.539     7.119    -5.637            236  PHE    0.115
  3671 CE2         -0.746     6.285    -3.723            236  PHE   -0.115
  3672 HE2         -0.932     5.325    -4.181            236  PHE    0.115
  3673 CD2         -1.165     6.446    -2.401            236  PHE   -0.115
  3674 HD2         -0.865     5.711    -1.669            236  PHE    0.115
  3675 C           -3.584     8.182     1.250            236  PHE    0.500
  3676 O           -3.413     9.267     1.815            236  PHE   -0.500
  3677 N           -3.982     7.046     1.856            237  THR   -0.500
  3678 H           -4.404     6.310     1.308            237  THR    0.300
  3679 CA          -4.172     7.024     3.304            237  THR    0.140
  3680 HA          -3.821     7.931     3.797            237  THR    0.060
  3681 CB          -5.731     7.110     3.644            237  THR    0.205
  3682 HB          -5.840     7.112     4.729            237  THR    0.060
  3683 CG2         -6.410     8.407     3.084            237  THR   -0.180
  3684 HG21        -6.085     9.284     3.643            237  THR    0.060
  3685 HG22        -6.143     8.562     2.039            237  THR    0.060
  3686 HG23        -7.484     8.266     3.208            237  THR    0.060
  3687 OG1         -6.446     5.940     3.150            237  THR   -0.683
  3688 HG1         -7.112     6.230     2.546            237  THR    0.418
  3689 C           -3.693     5.795     4.051            237  THR    0.500
  3690 O           -3.994     4.669     3.583            237  THR   -0.500
  3691 N           -3.043     5.936     5.161            238  GLU   -0.500
  3692 H           -2.645     6.837     5.386            238  GLU    0.300
  3693 CA          -2.606     4.769     5.962            238  GLU    0.140
  3694 HA          -2.731     3.852     5.387            238  GLU    0.060
  3695 CB          -1.159     4.898     6.511            238  GLU   -0.120
  3696 HB2         -0.450     5.048     5.697            238  GLU    0.060
  3697 HB3         -1.184     5.739     7.204            238  GLU    0.060
  3698 CG          -0.765     3.689     7.351            238  GLU   -0.220
  3699 HG2         -1.095     3.813     8.383            238  GLU    0.060
  3700 HG3         -1.204     2.828     6.846            238  GLU    0.060
  3701 CD           0.713     3.522     7.321            238  GLU    0.700
  3702 OE1          1.436     4.539     7.353            238  GLU   -0.800
  3703 OE2          1.137     2.405     7.343            238  GLU   -0.800
  3704 C           -3.608     4.810     7.094            238  GLU    0.500
  3705 O           -3.775     5.870     7.734            238  GLU   -0.500
  3706 N           -4.256     3.706     7.390            239  ARG   -0.500
  3707 H           -3.818     2.827     7.155            239  ARG    0.300
  3708 CA          -5.335     3.649     8.384            239  ARG    0.140
  3709 HA          -5.115     4.352     9.188            239  ARG    0.060
  3710 CB          -6.637     4.037     7.687            239  ARG   -0.120
  3711 HB2         -7.418     4.248     8.417            239  ARG    0.060
  3712 HB3         -6.429     4.950     7.129            239  ARG    0.060
  3713 CG          -7.146     3.040     6.610            239  ARG   -0.050
  3714 HG2         -6.389     2.883     5.842            239  ARG    0.060
  3715 HG3         -7.332     2.068     7.068            239  ARG    0.060
  3716 CD          -8.411     3.565     6.007            239  ARG    0.190
  3717 HD2         -8.194     4.214     5.158            239  ARG    0.060
  3718 HD3         -8.983     4.097     6.767            239  ARG    0.060
  3719 NE          -9.228     2.438     5.564            239  ARG   -0.700
  3720 HE          -9.506     1.818     6.311            239  ARG    0.440
  3721 CZ          -9.271     1.927     4.362            239  ARG    0.640
  3722 NH1        -10.092     0.926     4.223            239  ARG   -0.800
  3723 HH11       -10.822     0.774     4.904            239  ARG    0.460
  3724 HH12        -9.899     0.215     3.532            239  ARG    0.460
  3725 NH2         -8.569     2.372     3.346            239  ARG   -0.800
  3726 HH21        -9.020     2.551     2.460            239  ARG    0.460
  3727 HH22        -7.727     2.889     3.557            239  ARG    0.460
  3728 C           -5.397     2.230     8.964            239  ARG    0.500
  3729 O           -4.612     1.361     8.652            239  ARG   -0.500
  3730 N           -6.388     2.090     9.808            240  VAL   -0.500
  3731 H           -6.746     2.912    10.273            240  VAL    0.300
  3732 CA          -6.742     0.805    10.371            240  VAL    0.140
  3733 HA          -6.349     0.024     9.720            240  VAL    0.060
  3734 CB          -6.163     0.617    11.841            240  VAL   -0.060
  3735 HB          -5.830     1.599    12.176            240  VAL    0.060
  3736 CG1         -7.223     0.105    12.896            240  VAL   -0.180
  3737 HG11        -7.976    -0.518    12.414            240  VAL    0.060
  3738 HG12        -6.740    -0.495    13.667            240  VAL    0.060
  3739 HG13        -7.664     1.009    13.316            240  VAL    0.060
  3740 CG2         -4.938    -0.325    11.908            240  VAL   -0.180
  3741 HG21        -4.306    -0.075    12.760            240  VAL    0.060
  3742 HG22        -4.333    -0.233    11.006            240  VAL    0.060
  3743 HG23        -5.248    -1.365    12.006            240  VAL    0.060
  3744 C           -8.269     0.749    10.325            240  VAL    0.500
  3745 O           -8.975     1.671    10.718            240  VAL   -0.500
  3746 N           -8.838    -0.393     9.960            241  ASH   -0.500
  3747 H           -8.305    -1.018     9.373            241  ASH    0.300
  3748 CA         -10.283    -0.606    10.005            241  ASH    0.140
  3749 HA         -10.886    -0.223    10.828            241  ASH    0.060
  3750 CB         -10.926    -1.151     8.686            241  ASH   -0.120
  3751 HB2        -10.407    -2.048     8.348            241  ASH    0.060
  3752 HB3        -11.948    -1.464     8.899            241  ASH    0.060
  3753 CG         -10.988    -0.120     7.527            241  ASH    0.520
  3754 OD1        -10.364     0.926     7.640            241  ASH   -0.530
  3755 OD2        -11.623    -0.386     6.465            241  ASH   -0.440
  3756 HD1         -9.754     0.916     8.362            241  ASH    0.450
  3757 C          -10.418    -1.683    11.029            241  ASH    0.500
  3758 O           -9.868    -2.776    10.898            241  ASH   -0.500
  3759 N          -11.121    -1.386    12.098            242  VAL   -0.500
  3760 H          -11.154    -0.428    12.415            242  VAL    0.300
  3761 CA         -11.499    -2.439    13.055            242  VAL    0.140
  3762 HA         -10.694    -3.170    13.133            242  VAL    0.060
  3763 CB         -11.884    -1.857    14.500            242  VAL   -0.060
  3764 HB         -12.795    -1.264    14.422            242  VAL    0.060
  3765 CG1        -12.101    -2.982    15.460            242  VAL   -0.180
  3766 HG11       -13.042    -2.858    15.995            242  VAL    0.060
  3767 HG12       -11.301    -3.015    16.200            242  VAL    0.060
  3768 HG13       -12.101    -3.882    14.845            242  VAL    0.060
  3769 CG2        -10.788    -1.013    15.026            242  VAL   -0.180
  3770 HG21       -10.107    -1.604    15.638            242  VAL    0.060
  3771 HG22       -11.185    -0.212    15.650            242  VAL    0.060
  3772 HG23       -10.276    -0.598    14.158            242  VAL    0.060
  3773 C          -12.736    -3.098    12.434            242  VAL    0.500
  3774 O          -13.684    -2.409    12.048            242  VAL   -0.500
  3775 N          -12.732    -4.441    12.280            243  LEU   -0.500
  3776 H          -12.183    -4.981    12.933            243  LEU    0.300
  3777 CA         -13.722    -5.201    11.544            243  LEU    0.140
  3778 HA         -14.556    -4.562    11.253            243  LEU    0.060
  3779 CB         -13.025    -5.767    10.264            243  LEU   -0.120
  3780 HB2        -13.608    -6.584     9.840            243  LEU    0.060
  3781 HB3        -12.139    -6.284    10.631            243  LEU    0.060
  3782 CG         -12.521    -4.857     9.174            243  LEU   -0.060
  3783 HG         -11.822    -4.159     9.635            243  LEU    0.060
  3784 CD1        -11.731    -5.644     8.076            243  LEU   -0.180
  3785 HD11       -10.870    -5.070     7.735            243  LEU    0.060
  3786 HD12       -11.364    -6.591     8.471            243  LEU    0.060
  3787 HD13       -12.364    -5.855     7.214            243  LEU    0.060
  3788 CD2        -13.660    -4.027     8.572            243  LEU   -0.180
  3789 HD21       -13.378    -2.976     8.506            243  LEU    0.060
  3790 HD22       -13.898    -4.371     7.566            243  LEU    0.060
  3791 HD23       -14.562    -4.100     9.180            243  LEU    0.060
  3792 C          -14.238    -6.384    12.363            243  LEU    0.500
  3793 O          -13.404    -7.074    12.943            243  LEU   -0.500
  3794 N          -15.524    -6.550    12.432            244  ARG   -0.500
  3795 H          -16.086    -6.182    11.678            244  ARG    0.300
  3796 CA         -16.117    -7.608    13.208            244  ARG    0.140
  3797 HA         -15.318    -8.158    13.705            244  ARG    0.060
  3798 CB         -17.109    -7.077    14.261            244  ARG   -0.120
  3799 HB2        -16.630    -6.337    14.901            244  ARG    0.060
  3800 HB3        -17.878    -6.517    13.729            244  ARG    0.060
  3801 CG         -17.839    -8.170    15.128            244  ARG   -0.050
  3802 HG2        -17.123    -8.895    15.516            244  ARG    0.060
  3803 HG3        -18.505    -8.739    14.479            244  ARG    0.060
  3804 CD         -18.657    -7.575    16.252            244  ARG    0.190
  3805 HD2        -19.114    -8.362    16.853            244  ARG    0.060
  3806 HD3        -18.019    -6.974    16.900            244  ARG    0.060
  3807 NE         -19.741    -6.681    15.680            244  ARG   -0.700
  3808 HE         -19.571    -5.685    15.689            244  ARG    0.440
  3809 CZ         -20.929    -7.132    15.244            244  ARG    0.640
  3810 NH1        -21.198    -8.411    15.270            244  ARG   -0.800
  3811 HH11       -21.705    -8.805    16.050            244  ARG    0.460
  3812 HH12       -20.848    -9.015    14.540            244  ARG    0.460
  3813 NH2        -21.798    -6.291    14.755            244  ARG   -0.800
  3814 HH21       -22.786    -6.445    14.898            244  ARG    0.460
  3815 HH22       -21.481    -5.409    14.379            244  ARG    0.460
  3816 C          -16.804    -8.539    12.235            244  ARG    0.500
  3817 O          -17.685    -8.095    11.518            244  ARG   -0.500
  3818 N          -16.309    -9.757    12.103            245  ALA   -0.500
  3819 H          -15.370    -9.913    12.440            245  ALA    0.300
  3820 CA         -16.714   -10.672    11.022            245  ALA    0.140
  3821 HA         -16.910   -10.105    10.112            245  ALA    0.060
  3822 CB         -15.628   -11.650    10.815            245  ALA   -0.180
  3823 HB1        -15.304   -12.073    11.766            245  ALA    0.060
  3824 HB2        -15.965   -12.472    10.184            245  ALA    0.060
  3825 HB3        -14.828   -11.087    10.335            245  ALA    0.060
  3826 C          -18.003   -11.379    11.489            245  ALA    0.500
  3827 O          -17.976   -12.165    12.420            245  ALA   -0.500
  3828 N          -19.151   -11.117    10.896            246  LEU   -0.500
  3829 H          -19.157   -10.390    10.195            246  LEU    0.300
  3830 CA         -20.477   -11.593    11.365            246  LEU    0.140
  3831 HA         -20.572   -11.199    12.377            246  LEU    0.060
  3832 CB         -21.646   -10.966    10.530            246  LEU   -0.120
  3833 HB2        -22.606   -11.376    10.843            246  LEU    0.060
  3834 HB3        -21.533   -11.402     9.538            246  LEU    0.060
  3835 CG         -21.760    -9.454    10.271            246  LEU   -0.060
  3836 HG         -20.816    -9.128     9.834            246  LEU    0.060
  3837 CD1        -22.862    -9.060     9.324            246  LEU   -0.180
  3838 HD11       -23.729    -9.708     9.452            246  LEU    0.060
  3839 HD12       -22.531    -9.144     8.289            246  LEU    0.060
  3840 HD13       -23.177    -8.031     9.496            246  LEU    0.060
  3841 CD2        -22.018    -8.592    11.527            246  LEU   -0.180
  3842 HD21       -21.361    -8.893    12.343            246  LEU    0.060
  3843 HD22       -23.047    -8.704    11.868            246  LEU    0.060
  3844 HD23       -21.841    -7.536    11.321            246  LEU    0.060
  3845 C          -20.627   -13.123    11.522            246  LEU    0.500
  3846 O          -21.141   -13.569    12.561            246  LEU   -0.500
  3847 N          -20.277   -13.956    10.534            247  PRO   -0.140
  3848 CD         -19.873   -13.752     9.139            247  PRO   -0.050
  3849 HD2        -20.480   -12.963     8.695            247  PRO    0.060
  3850 HD3        -18.814   -13.504     9.061            247  PRO    0.060
  3851 CG         -20.210   -15.110     8.515            247  PRO   -0.120
  3852 HG2        -21.264   -15.156     8.239            247  PRO    0.060
  3853 HG3        -19.533   -15.274     7.676            247  PRO    0.060
  3854 CB         -19.915   -16.062     9.532            247  PRO   -0.120
  3855 HB2        -20.468   -16.987     9.367            247  PRO    0.060
  3856 HB3        -18.851   -16.297     9.557            247  PRO    0.060
  3857 CA         -20.366   -15.386    10.830            247  PRO    0.010
  3858 HA         -21.415   -15.674    10.899            247  PRO    0.060
  3859 C          -19.585   -15.968    12.043            247  PRO    0.500
  3860 O          -19.931   -17.055    12.539            247  PRO   -0.500
  3861 N          -18.585   -15.286    12.528            248  THR   -0.500
  3862 H          -18.043   -14.732    11.880            248  THR    0.300
  3863 CA         -17.894   -15.732    13.728            248  THR    0.140
  3864 HA         -18.323   -16.687    14.032            248  THR    0.060
  3865 CB         -16.394   -15.917    13.415            248  THR    0.205
  3866 HB         -15.875   -16.012    14.369            248  THR    0.060
  3867 CG2        -16.222   -17.250    12.676            248  THR   -0.180
  3868 HG21       -15.361   -17.212    12.009            248  THR    0.060
  3869 HG22       -16.059   -18.064    13.383            248  THR    0.060
  3870 HG23       -17.148   -17.425    12.128            248  THR    0.060
  3871 OG1        -15.839   -14.875    12.606            248  THR   -0.683
  3872 HG1        -15.011   -14.614    12.980            248  THR    0.418
  3873 C          -17.954   -14.768    14.937            248  THR    0.500
  3874 O          -17.492   -15.110    16.100            248  THR   -0.500
  3875 N          -18.421   -13.543    14.744            249  GLY   -0.500
  3876 H          -19.040   -13.425    13.955            249  GLY    0.300
  3877 CA         -18.509   -12.478    15.751            249  GLY    0.080
  3878 HA2        -19.138   -12.811    16.576            249  GLY    0.060
  3879 HA3        -18.927   -11.587    15.283            249  GLY    0.060
  3880 C          -17.126   -12.118    16.281            249  GLY    0.500
  3881 O          -17.011   -11.448    17.289            249  GLY   -0.500
  3882 N          -16.066   -12.579    15.646            250  LYS   -0.500
  3883 H          -16.201   -13.360    15.020            250  LYS    0.300
  3884 CA         -14.661   -12.276    16.016            250  LYS    0.140
  3885 HA         -14.588   -12.181    17.099            250  LYS    0.060
  3886 CB         -13.791   -13.419    15.525            250  LYS   -0.120
  3887 HB2        -13.987   -13.628    14.473            250  LYS    0.060
  3888 HB3        -12.748   -13.104    15.569            250  LYS    0.060
  3889 CG         -13.946   -14.641    16.336            250  LYS   -0.120
  3890 HG2        -13.822   -14.418    17.396            250  LYS    0.060
  3891 HG3        -14.942   -15.014    16.098            250  LYS    0.060
  3892 CD         -12.946   -15.763    15.884            250  LYS   -0.120
  3893 HD2        -11.946   -15.354    15.741            250  LYS    0.060
  3894 HD3        -13.255   -16.139    14.909            250  LYS    0.060
  3895 CE         -12.918   -16.943    16.890            250  LYS    0.190
  3896 HE2        -12.546   -16.613    17.860            250  LYS    0.060
  3897 HE3        -13.941   -17.276    17.066            250  LYS    0.060
  3898 NZ         -12.138   -18.129    16.437            250  LYS   -0.300
  3899 HZ1        -12.692   -18.964    16.561            250  LYS    0.330
  3900 HZ2        -11.903   -18.023    15.460            250  LYS    0.330
  3901 HZ3        -11.291   -18.203    16.981            250  LYS    0.330
  3902 C          -14.239   -10.928    15.352            250  LYS    0.500
  3903 O          -14.621   -10.673    14.229            250  LYS   -0.500
  3904 N          -13.489   -10.135    16.069            251  SER   -0.500
  3905 H          -12.902   -10.546    16.780            251  SER    0.300
  3906 CA         -13.115    -8.859    15.578            251  SER    0.140
  3907 HA         -13.570    -8.695    14.601            251  SER    0.060
  3908 CB         -13.642    -7.725    16.509            251  SER    0.145
  3909 HB2        -13.148    -7.764    17.480            251  SER    0.060
  3910 HB3        -13.436    -6.747    16.073            251  SER    0.060
  3911 OG         -15.051    -7.873    16.686            251  SER   -0.683
  3912 HG         -15.488    -7.491    15.940            251  SER    0.418
  3913 C          -11.570    -8.791    15.448            251  SER    0.500
  3914 O          -10.838    -9.675    15.971            251  SER   -0.500
  3915 N          -11.026    -7.756    14.798            252  TYR   -0.500
  3916 H          -11.651    -7.109    14.338            252  TYR    0.300
  3917 CA          -9.603    -7.493    14.659            252  TYR    0.140
  3918 HA          -9.159    -7.575    15.651            252  TYR    0.060
  3919 CB          -8.877    -8.491    13.701            252  TYR   -0.005
  3920 HB2         -9.282    -8.417    12.692            252  TYR    0.060
  3921 HB3         -9.147    -9.496    14.024            252  TYR    0.060
  3922 CG          -7.354    -8.477    13.638            252  TYR   -0.115
  3923 CD1         -6.625    -9.236    14.561            252  TYR   -0.115
  3924 HD1         -7.108    -9.552    15.474            252  TYR    0.115
  3925 CE1         -5.251    -9.430    14.422            252  TYR   -0.115
  3926 HE1         -4.769   -10.248    14.936            252  TYR    0.115
  3927 CZ          -4.623    -8.826    13.339            252  TYR    0.150
  3928 OH          -3.281    -8.999    13.102            252  TYR   -0.585
  3929 HH          -2.738    -8.659    13.796            252  TYR    0.435
  3930 CE2         -5.334    -7.992    12.463            252  TYR   -0.115
  3931 HE2         -4.848    -7.612    11.577            252  TYR    0.115
  3932 CD2         -6.694    -7.839    12.611            252  TYR   -0.115
  3933 HD2         -7.265    -7.379    11.818            252  TYR    0.115
  3934 C           -9.372    -6.028    14.161            252  TYR    0.500
  3935 O          -10.264    -5.444    13.572            252  TYR   -0.500
  3936 N           -8.181    -5.476    14.418            253  ASN   -0.500
  3937 H           -7.513    -5.984    14.979            253  ASN    0.300
  3938 CA          -7.811    -4.100    13.966            253  ASN    0.140
  3939 HA          -8.710    -3.569    13.652            253  ASN    0.060
  3940 CB          -7.119    -3.354    15.127            253  ASN   -0.120
  3941 HB2         -6.151    -3.804    15.349            253  ASN    0.060
  3942 HB3         -6.939    -2.342    14.764            253  ASN    0.060
  3943 CG          -7.944    -3.251    16.421            253  ASN    0.500
  3944 OD1         -9.092    -3.722    16.515            253  ASN   -0.500
  3945 ND2         -7.373    -2.596    17.437            253  ASN   -0.760
  3946 HD21        -6.513    -2.942    17.837            253  ASN    0.380
  3947 HD22        -7.975    -2.040    18.027            253  ASN    0.380
  3948 C           -6.889    -4.322    12.734            253  ASN    0.500
  3949 O           -5.642    -4.458    12.876            253  ASN   -0.500
  3950 N           -7.443    -4.410    11.525            254  LEU   -0.500
  3951 H           -8.437    -4.256    11.435            254  LEU    0.300
  3952 CA          -6.684    -4.650    10.296            254  LEU    0.140
  3953 HA          -5.933    -5.421    10.469            254  LEU    0.060
  3954 CB          -7.639    -5.054     9.142            254  LEU   -0.120
  3955 HB2         -8.370    -5.786     9.484            254  LEU    0.060
  3956 HB3         -8.234    -4.176     8.889            254  LEU    0.060
  3957 CG          -6.959    -5.526     7.866            254  LEU   -0.060
  3958 HG          -6.375    -4.724     7.416            254  LEU    0.060
  3959 CD1         -6.064    -6.785     8.141            254  LEU   -0.180
  3960 HD11        -5.721    -6.796     9.176            254  LEU    0.060
  3961 HD12        -5.184    -6.780     7.498            254  LEU    0.060
  3962 HD13        -6.616    -7.706     7.956            254  LEU    0.060
  3963 CD2         -8.130    -5.977     6.905            254  LEU   -0.180
  3964 HD21        -7.940    -5.643     5.885            254  LEU    0.060
  3965 HD22        -9.078    -5.545     7.225            254  LEU    0.060
  3966 HD23        -8.135    -7.066     6.955            254  LEU    0.060
  3967 C           -6.006    -3.362     9.845            254  LEU    0.500
  3968 O           -6.693    -2.394     9.552            254  LEU   -0.500
  3969 N           -4.706    -3.414     9.632            255  SER   -0.500
  3970 H           -4.214    -4.262     9.874            255  SER    0.300
  3971 CA          -3.911    -2.311     9.116            255  SER    0.140
  3972 HA          -4.314    -1.358     9.460            255  SER    0.060
  3973 CB          -2.417    -2.360     9.426            255  SER    0.145
  3974 HB2         -2.013    -3.351     9.221            255  SER    0.060
  3975 HB3         -1.860    -1.624     8.846            255  SER    0.060
  3976 OG          -2.315    -2.086    10.799            255  SER   -0.683
  3977 HG          -1.421    -1.851    10.993            255  SER    0.418
  3978 C           -4.135    -2.370     7.613            255  SER    0.500
  3979 O           -4.146    -3.478     7.005            255  SER   -0.500
  3980 N           -4.312    -1.164     7.058            256  ILE   -0.500
  3981 H           -4.659    -0.418     7.644            256  ILE    0.300
  3982 CA          -4.569    -1.052     5.586            256  ILE    0.140
  3983 HA          -4.196    -1.908     5.023            256  ILE    0.060
  3984 CB          -6.171    -0.924     5.370            256  ILE   -0.060
  3985 HB          -6.498    -0.037     5.912            256  ILE    0.060
  3986 CG2         -6.507    -0.682     3.839            256  ILE   -0.180
  3987 HG21        -5.717    -0.106     3.358            256  ILE    0.060
  3988 HG22        -7.439    -0.126     3.731            256  ILE    0.060
  3989 HG23        -6.611    -1.627     3.307            256  ILE    0.060
  3990 CG1         -6.911    -2.145     6.004            256  ILE   -0.120
  3991 HG12        -6.557    -2.326     7.019            256  ILE    0.060
  3992 HG13        -6.645    -3.039     5.441            256  ILE    0.060
  3993 CD1         -8.382    -1.997     5.980            256  ILE   -0.180
  3994 HD11        -8.671    -1.135     5.379            256  ILE    0.060
  3995 HD12        -8.851    -2.879     5.543            256  ILE    0.060
  3996 HD13        -8.735    -1.831     6.998            256  ILE    0.060
  3997 C           -3.962     0.252     5.086            256  ILE    0.500
  3998 O           -3.981     1.230     5.770            256  ILE   -0.500
  3999 N           -3.484     0.207     3.895            257  LEU   -0.500
  4000 H           -3.312    -0.687     3.459            257  LEU    0.300
  4001 CA          -3.103     1.410     3.174            257  LEU    0.140
  4002 HA          -3.313     2.288     3.785            257  LEU    0.060
  4003 CB          -1.581     1.301     2.859            257  LEU   -0.120
  4004 HB2         -1.347     0.329     2.426            257  LEU    0.060
  4005 HB3         -1.104     1.229     3.837            257  LEU    0.060
  4006 CG          -0.795     2.439     2.120            257  LEU   -0.060
  4007 HG          -1.277     2.621     1.159            257  LEU    0.060
  4008 CD1         -0.797     3.771     2.933            257  LEU   -0.180
  4009 HD11         0.139     3.890     3.479            257  LEU    0.060
  4010 HD12        -1.608     3.776     3.661            257  LEU    0.060
  4011 HD13        -0.921     4.632     2.276            257  LEU    0.060
  4012 CD2          0.663     2.048     1.865            257  LEU   -0.180
  4013 HD21         1.107     1.615     2.761            257  LEU    0.060
  4014 HD22         1.253     2.922     1.591            257  LEU    0.060
  4015 HD23         0.692     1.297     1.076            257  LEU    0.060
  4016 C           -3.910     1.465     1.909            257  LEU    0.500
  4017 O           -4.258     0.414     1.356            257  LEU   -0.500
  4018 N           -4.372     2.667     1.542            258  GLY   -0.500
  4019 H           -4.407     3.389     2.247            258  GLY    0.300
  4020 CA          -5.252     2.856     0.390            258  GLY    0.080
  4021 HA2         -6.286     2.915     0.729            258  GLY    0.060
  4022 HA3         -5.189     1.957    -0.223            258  GLY    0.060
  4023 C           -4.946     4.047    -0.510            258  GLY    0.500
  4024 O           -4.146     4.953    -0.154            258  GLY   -0.500
  4025 N           -5.482     3.937    -1.725            259  VAL   -0.500
  4026 H           -5.781     3.025    -2.040            259  VAL    0.300
  4027 CA          -5.235     4.977    -2.769            259  VAL    0.140
  4028 HA          -4.861     5.889    -2.303            259  VAL    0.060
  4029 CB          -4.149     4.385    -3.880            259  VAL   -0.060
  4030 HB          -3.186     4.234    -3.393            259  VAL    0.060
  4031 CG1         -4.622     3.063    -4.474            259  VAL   -0.180
  4032 HG11        -3.985     2.764    -5.307            259  VAL    0.060
  4033 HG12        -5.641     3.154    -4.850            259  VAL    0.060
  4034 HG13        -4.603     2.268    -3.729            259  VAL    0.060
  4035 CG2         -3.979     5.372    -5.032            259  VAL   -0.180
  4036 HG21        -3.140     5.085    -5.665            259  VAL    0.060
  4037 HG22        -4.873     5.395    -5.655            259  VAL    0.060
  4038 HG23        -3.796     6.380    -4.661            259  VAL    0.060
  4039 C           -6.471     5.253    -3.466            259  VAL    0.500
  4040 O           -7.323     4.406    -3.697            259  VAL   -0.500
  4041 N           -6.574     6.533    -3.740            260  PHE   -0.500
  4042 H           -5.809     7.143    -3.491            260  PHE    0.300
  4043 CA          -7.721     7.135    -4.366            260  PHE    0.140
  4044 HA          -8.352     6.359    -4.800            260  PHE    0.060
  4045 CB          -8.514     7.964    -3.301            260  PHE   -0.005
  4046 HB2         -9.469     8.298    -3.707            260  PHE    0.060
  4047 HB3         -7.955     8.871    -3.070            260  PHE    0.060
  4048 CG          -8.754     7.213    -1.975            260  PHE   -0.115
  4049 CD1         -7.757     7.164    -1.010            260  PHE   -0.115
  4050 HD1         -6.769     7.525    -1.255            260  PHE    0.115
  4051 CE1         -7.943     6.410     0.175            260  PHE   -0.115
  4052 HE1         -7.294     6.630     1.010            260  PHE    0.115
  4053 CZ          -9.121     5.839     0.436            260  PHE   -0.115
  4054 HZ          -9.349     5.558     1.454            260  PHE    0.115
  4055 CE2        -10.145     5.944    -0.468            260  PHE   -0.115
  4056 HE2        -11.052     5.383    -0.296            260  PHE    0.115
  4057 CD2         -9.969     6.602    -1.723            260  PHE   -0.115
  4058 HD2        -10.651     6.402    -2.536            260  PHE    0.115
  4059 C           -7.354     8.137    -5.422            260  PHE    0.500
  4060 O           -6.343     8.744    -5.353            260  PHE   -0.500
  4061 N           -8.294     8.277    -6.384            261  GLN   -0.500
  4062 H           -8.966     7.531    -6.494            261  GLN    0.300
  4063 CA          -8.173     9.226    -7.531            261  GLN    0.140
  4064 HA          -7.310     9.879    -7.403            261  GLN    0.060
  4065 CB          -8.100     8.418    -8.845            261  GLN   -0.120
  4066 HB2         -9.015     7.844    -8.995            261  GLN    0.060
  4067 HB3         -8.122     9.155    -9.648            261  GLN    0.060
  4068 CG          -6.870     7.546    -9.088            261  GLN   -0.120
  4069 HG2         -6.456     7.192    -8.144            261  GLN    0.060
  4070 HG3         -6.149     8.206    -9.571            261  GLN    0.060
  4071 CD          -7.075     6.371   -10.024            261  GLN    0.500
  4072 OE1         -7.411     5.301    -9.568            261  GLN   -0.500
  4073 NE2         -6.840     6.508   -11.267            261  GLN   -0.760
  4074 HE21        -7.527     6.207   -11.944            261  GLN    0.380
  4075 HE22        -5.879     6.599   -11.563            261  GLN    0.380
  4076 C           -9.422     9.975    -7.380            261  GLN    0.500
  4077 O          -10.435     9.416    -6.945            261  GLN   -0.500
  4078 N           -9.417    11.258    -7.790            262  LEU   -0.500
  4079 H           -8.531    11.670    -8.045            262  LEU    0.300
  4080 CA         -10.551    12.165    -7.666            262  LEU    0.140
  4081 HA         -11.471    11.586    -7.592            262  LEU    0.060
  4082 CB         -10.413    13.130    -6.453            262  LEU   -0.120
  4083 HB2        -10.966    14.052    -6.631            262  LEU    0.060
  4084 HB3         -9.373    13.457    -6.435            262  LEU    0.060
  4085 CG         -10.731    12.559    -5.005            262  LEU   -0.060
  4086 HG         -11.472    11.764    -5.081            262  LEU    0.060
  4087 CD1         -9.521    12.020    -4.318            262  LEU   -0.180
  4088 HD11        -9.756    11.094    -3.794            262  LEU    0.060
  4089 HD12        -8.732    11.805    -5.039            262  LEU    0.060
  4090 HD13        -9.133    12.733    -3.591            262  LEU    0.060
  4091 CD2        -11.303    13.620    -4.173            262  LEU   -0.180
  4092 HD21       -12.213    14.015    -4.625            262  LEU    0.060
  4093 HD22       -10.600    14.446    -4.066            262  LEU    0.060
  4094 HD23       -11.549    13.249    -3.178            262  LEU    0.060
  4095 C          -10.611    13.048    -8.888            262  LEU    0.500
  4096 O           -9.549    13.601    -9.341            262  LEU   -0.500
  4097 N          -11.814    13.293    -9.326            263  THR   -0.500
  4098 H          -12.582    13.125    -8.691            263  THR    0.300
  4099 CA         -12.069    14.276   -10.376            263  THR    0.140
  4100 HA         -11.237    14.979   -10.345            263  THR    0.060
  4101 CB         -12.075    13.634   -11.766            263  THR    0.205
  4102 HB         -11.117    13.142   -11.935            263  THR    0.060
  4103 CG2        -13.192    12.617   -11.934            263  THR   -0.180
  4104 HG21       -13.844    12.613   -11.060            263  THR    0.060
  4105 HG22       -12.784    11.613   -12.050            263  THR    0.060
  4106 HG23       -13.799    12.842   -12.811            263  THR    0.060
  4107 OG1        -12.213    14.676   -12.745            263  THR   -0.683
  4108 HG1        -12.797    14.374   -13.424            263  THR    0.418
  4109 C          -13.308    15.069    -9.988            263  THR    0.500
  4110 O          -14.324    14.411    -9.586            263  THR   -0.500
  4111 N          -13.204    16.402   -10.008            264  ASP   -0.500
  4112 H          -12.466    16.804   -10.568            264  ASP    0.300
  4113 CA         -14.380    17.269    -9.729            264  ASP    0.140
  4114 HA         -14.062    18.310    -9.781            264  ASP    0.060
  4115 CB         -15.546    17.026   -10.727            264  ASP   -0.220
  4116 HB2        -15.837    15.975   -10.731            264  ASP    0.060
  4117 HB3        -16.422    17.574   -10.382            264  ASP    0.060
  4118 CG         -15.248    17.490   -12.194            264  ASP    0.700
  4119 OD1        -14.403    18.443   -12.450            264  ASP   -0.800
  4120 OD2        -15.855    16.905   -13.103            264  ASP   -0.800
  4121 C          -14.844    16.966    -8.274            264  ASP    0.500
  4122 O          -16.017    17.034    -7.974            264  ASP   -0.500
  4123 N          -13.942    16.547    -7.379            265  GLY   -0.500
  4124 H          -13.114    16.083    -7.723            265  GLY    0.300
  4125 CA         -14.394    16.168    -6.028            265  GLY    0.080
  4126 HA2        -14.927    17.005    -5.577            265  GLY    0.060
  4127 HA3        -13.485    16.082    -5.433            265  GLY    0.060
  4128 C          -15.181    14.853    -5.768            265  GLY    0.500
  4129 O          -15.416    14.515    -4.588            265  GLY   -0.500
  4130 N          -15.441    14.119    -6.822            266  LYS   -0.500
  4131 H          -15.628    14.569    -7.707            266  LYS    0.300
  4132 CA         -15.871    12.773    -6.650            266  LYS    0.140
  4133 HA         -16.079    12.611    -5.592            266  LYS    0.060
  4134 CB         -17.272    12.601    -7.359            266  LYS   -0.120
  4135 HB2        -17.620    11.571    -7.278            266  LYS    0.060
  4136 HB3        -17.123    12.757    -8.428            266  LYS    0.060
  4137 CG         -18.379    13.593    -6.884            266  LYS   -0.120
  4138 HG2        -17.985    14.607    -6.820            266  LYS    0.060
  4139 HG3        -19.181    13.621    -7.622            266  LYS    0.060
  4140 CD         -18.931    13.161    -5.570            266  LYS   -0.120
  4141 HD2        -19.470    12.219    -5.668            266  LYS    0.060
  4142 HD3        -18.109    12.970    -4.880            266  LYS    0.060
  4143 CE         -19.813    14.215    -5.000            266  LYS    0.190
  4144 HE2        -19.250    15.130    -4.817            266  LYS    0.060
  4145 HE3        -20.615    14.383    -5.718            266  LYS    0.060
  4146 NZ         -20.329    13.674    -3.698            266  LYS   -0.300
  4147 HZ1        -20.259    14.386    -2.985            266  LYS    0.330
  4148 HZ2        -21.295    13.401    -3.807            266  LYS    0.330
  4149 HZ3        -19.780    12.871    -3.426            266  LYS    0.330
  4150 C          -14.852    11.743    -7.154            266  LYS    0.500
  4151 O          -14.173    11.948    -8.201            266  LYS   -0.500
  4152 N          -14.685    10.698    -6.312            267  ILE   -0.500
  4153 H          -15.301    10.626    -5.515            267  ILE    0.300
  4154 CA         -13.706     9.627    -6.488            267  ILE    0.140
  4155 HA         -12.728    10.107    -6.460            267  ILE    0.060
  4156 CB         -13.786     8.587    -5.218            267  ILE   -0.060
  4157 HB         -14.807     8.207    -5.178            267  ILE    0.060
  4158 CG2        -12.842     7.357    -5.378            267  ILE   -0.180
  4159 HG21       -11.954     7.626    -5.950            267  ILE    0.060
  4160 HG22       -12.514     6.995    -4.404            267  ILE    0.060
  4161 HG23       -13.384     6.558    -5.884            267  ILE    0.060
  4162 CG1        -13.516     9.335    -3.862            267  ILE   -0.120
  4163 HG12       -14.055    10.282    -3.830            267  ILE    0.060
  4164 HG13       -12.465     9.624    -3.880            267  ILE    0.060
  4165 CD1        -13.724     8.526    -2.511            267  ILE   -0.180
  4166 HD11       -14.744     8.644    -2.145            267  ILE    0.060
  4167 HD12       -13.549     7.462    -2.670            267  ILE    0.060
  4168 HD13       -12.993     8.883    -1.786            267  ILE    0.060
  4169 C          -13.773     8.855    -7.868            267  ILE    0.500
  4170 O          -14.764     8.155    -8.090            267  ILE   -0.500
  4171 N          -12.788     8.982    -8.725            268  THR   -0.500
  4172 H          -11.954     9.484    -8.455            268  THR    0.300
  4173 CA         -12.785     8.267   -10.019            268  THR    0.140
  4174 HA         -13.713     8.316   -10.589            268  THR    0.060
  4175 CB         -11.784     8.896   -10.982            268  THR    0.205
  4176 HB         -10.969     8.196   -11.166            268  THR    0.060
  4177 CG2        -12.472     9.218   -12.289            268  THR   -0.180
  4178 HG21       -13.050     8.364   -12.641            268  THR    0.060
  4179 HG22       -11.741     9.465   -13.058            268  THR    0.060
  4180 HG23       -13.139    10.067   -12.141            268  THR    0.060
  4181 OG1        -11.223    10.092   -10.394            268  THR   -0.683
  4182 HG1        -10.907     9.881    -9.529            268  THR    0.418
  4183 C          -12.243     6.824    -9.949            268  THR    0.500
  4184 O          -12.350     6.048   -10.872            268  THR   -0.500
  4185 N          -11.662     6.435    -8.819            269  GLY   -0.500
  4186 H          -11.789     7.003    -7.994            269  GLY    0.300
  4187 CA         -11.271     5.013    -8.615            269  GLY    0.080
  4188 HA2        -12.144     4.373    -8.746            269  GLY    0.060
  4189 HA3        -10.490     4.755    -9.330            269  GLY    0.060
  4190 C          -10.710     4.820    -7.238            269  GLY    0.500
  4191 O          -10.333     5.825    -6.552            269  GLY   -0.500
  4192 N          -10.726     3.612    -6.733            270  TRP   -0.500
  4193 H          -10.854     2.832    -7.362            270  TRP    0.300
  4194 CA         -10.277     3.302    -5.360            270  TRP    0.140
  4195 HA          -9.545     4.038    -5.028            270  TRP    0.060
  4196 CB         -11.530     3.284    -4.426            270  TRP   -0.120
  4197 HB2        -12.060     4.235    -4.476            270  TRP    0.060
  4198 HB3        -12.158     2.498    -4.845            270  TRP    0.060
  4199 CG         -11.257     2.935    -2.977            270  TRP    0.075
  4200 CD1        -10.104     3.060    -2.297            270  TRP   -0.115
  4201 HD1         -9.166     2.980    -2.827            270  TRP    0.115
  4202 NE1        -10.217     2.615    -0.974            270  TRP   -0.570
  4203 HE1         -9.462     2.094    -0.552            270  TRP    0.420
  4204 CE2        -11.513     2.345    -0.741            270  TRP    0.130
  4205 CZ2        -12.137     1.947     0.427            270  TRP   -0.115
  4206 HZ2        -11.700     2.247     1.368            270  TRP    0.115
  4207 CH2        -13.458     1.679     0.399            270  TRP   -0.115
  4208 HH2        -13.990     1.708     1.338            270  TRP    0.115
  4209 CZ3        -14.224     1.773    -0.790            270  TRP   -0.115
  4210 HZ3        -15.295     1.890    -0.713            270  TRP    0.115
  4211 CE3        -13.586     2.092    -2.011            270  TRP   -0.115
  4212 HE3        -14.067     1.845    -2.946            270  TRP    0.115
  4213 CD2        -12.191     2.421    -1.994            270  TRP   -0.055
  4214 C           -9.691     1.935    -5.309            270  TRP    0.500
  4215 O          -10.330     1.001    -5.778            270  TRP   -0.500
  4216 N           -8.548     1.738    -4.666            271  ARG   -0.500
  4217 H           -8.217     2.464    -4.046            271  ARG    0.300
  4218 CA          -8.031     0.392    -4.451            271  ARG    0.140
  4219 HA          -8.837    -0.338    -4.520            271  ARG    0.060
  4220 CB          -6.903     0.043    -5.430            271  ARG   -0.120
  4221 HB2         -6.142     0.823    -5.435            271  ARG    0.060
  4222 HB3         -6.402    -0.863    -5.088            271  ARG    0.060
  4223 CG          -7.435    -0.185    -6.807            271  ARG   -0.050
  4224 HG2         -8.282     0.471    -7.005            271  ARG    0.060
  4225 HG3         -7.874    -1.182    -6.811            271  ARG    0.060
  4226 CD          -6.462    -0.143    -7.935            271  ARG    0.190
  4227 HD2         -6.972    -0.288    -8.888            271  ARG    0.060
  4228 HD3         -5.760    -0.969    -7.819            271  ARG    0.060
  4229 NE          -5.711     1.112    -7.972            271  ARG   -0.700
  4230 HE          -4.942     1.147    -7.318            271  ARG    0.440
  4231 CZ          -6.146     2.272    -8.396            271  ARG    0.640
  4232 NH1         -7.348     2.406    -8.904            271  ARG   -0.800
  4233 HH11        -7.466     2.502    -9.902            271  ARG    0.460
  4234 HH12        -8.119     2.011    -8.384            271  ARG    0.460
  4235 NH2         -5.370     3.320    -8.339            271  ARG   -0.800
  4236 HH21        -5.153     3.740    -7.446            271  ARG    0.460
  4237 HH22        -5.255     3.880    -9.171            271  ARG    0.460
  4238 C           -7.468     0.418    -3.038            271  ARG    0.500
  4239 O           -6.835     1.391    -2.682            271  ARG   -0.500
  4240 N           -7.635    -0.698    -2.298            272  ASP   -0.500
  4241 H           -7.813    -1.561    -2.792            272  ASP    0.300
  4242 CA          -7.112    -0.816    -0.972            272  ASP    0.140
  4243 HA          -6.579     0.101    -0.720            272  ASP    0.060
  4244 CB          -8.216    -1.097     0.080            272  ASP   -0.220
  4245 HB2         -9.070    -1.593    -0.380            272  ASP    0.060
  4246 HB3         -7.777    -1.797     0.791            272  ASP    0.060
  4247 CG          -8.695     0.120     0.859            272  ASP    0.700
  4248 OD1         -8.026     1.199     0.799            272  ASP   -0.800
  4249 OD2         -9.734     0.018     1.614            272  ASP   -0.800
  4250 C           -6.119    -1.952    -1.050            272  ASP    0.500
  4251 O           -6.284    -2.835    -1.880            272  ASP   -0.500
  4252 N           -5.131    -1.912    -0.198            273  TYR   -0.500
  4253 H           -5.127    -1.159     0.475            273  TYR    0.300
  4254 CA          -4.004    -2.855    -0.123            273  TYR    0.140
  4255 HA          -4.281    -3.742    -0.693            273  TYR    0.060
  4256 CB          -2.718    -2.281    -0.701            273  TYR   -0.005
  4257 HB2         -2.444    -1.358    -0.189            273  TYR    0.060
  4258 HB3         -1.915    -2.976    -0.454            273  TYR    0.060
  4259 CG          -2.634    -2.066    -2.232            273  TYR   -0.115
  4260 CD1         -3.447    -1.089    -2.867            273  TYR   -0.115
  4261 HD1         -4.397    -0.843    -2.416            273  TYR    0.115
  4262 CE1         -3.282    -0.827    -4.265            273  TYR   -0.115
  4263 HE1         -3.694     0.079    -4.683            273  TYR    0.115
  4264 CZ          -2.406    -1.573    -5.023            273  TYR    0.150
  4265 OH          -2.167    -1.424    -6.345            273  TYR   -0.585
  4266 HH          -2.942    -1.529    -6.875            273  TYR    0.435
  4267 CE2         -1.652    -2.514    -4.397            273  TYR   -0.115
  4268 HE2         -1.074    -3.200    -4.999            273  TYR    0.115
  4269 CD2         -1.717    -2.725    -3.011            273  TYR   -0.115
  4270 HD2         -0.833    -3.112    -2.527            273  TYR    0.115
  4271 C           -3.743    -3.295     1.328            273  TYR    0.500
  4272 O           -3.464    -2.479     2.225            273  TYR   -0.500
  4273 N           -3.729    -4.630     1.420            274  PHE   -0.500
  4274 H           -3.664    -5.185     0.579            274  PHE    0.300
  4275 CA          -3.531    -5.313     2.726            274  PHE    0.140
  4276 HA          -2.614    -4.947     3.188            274  PHE    0.060
  4277 CB          -4.721    -5.072     3.644            274  PHE   -0.005
  4278 HB2         -4.593    -5.602     4.588            274  PHE    0.060
  4279 HB3         -4.761    -4.013     3.898            274  PHE    0.060
  4280 CG          -6.057    -5.449     3.032            274  PHE   -0.115
  4281 CD1         -6.586    -6.763     3.064            274  PHE   -0.115
  4282 HD1         -6.179    -7.461     3.780            274  PHE    0.115
  4283 CE1         -7.795    -7.068     2.471            274  PHE   -0.115
  4284 HE1         -8.100    -8.099     2.370            274  PHE    0.115
  4285 CZ          -8.492    -6.088     1.833            274  PHE   -0.115
  4286 HZ          -9.405    -6.342     1.315            274  PHE    0.115
  4287 CE2         -8.063    -4.795     1.828            274  PHE   -0.115
  4288 HE2         -8.811    -4.016     1.829            274  PHE    0.115
  4289 CD2         -6.815    -4.501     2.350            274  PHE   -0.115
  4290 HD2         -6.430    -3.497     2.248            274  PHE    0.115
  4291 C           -3.380    -6.795     2.420            274  PHE    0.500
  4292 O           -3.590    -7.194     1.292            274  PHE   -0.500
  4293 N           -3.103    -7.575     3.432            275  ASP   -0.500
  4294 H           -3.394    -7.263     4.347            275  ASP    0.300
  4295 CA          -3.059    -9.008     3.278            275  ASP    0.140
  4296 HA          -3.068    -9.276     2.222            275  ASP    0.060
  4297 CB          -1.805    -9.550     3.985            275  ASP   -0.220
  4298 HB2         -1.809    -9.278     5.040            275  ASP    0.060
  4299 HB3         -0.910    -9.110     3.546            275  ASP    0.060
  4300 CG          -1.722   -11.057     3.853            275  ASP    0.700
  4301 OD1         -0.986   -11.578     3.039            275  ASP   -0.800
  4302 OD2         -2.374   -11.808     4.623            275  ASP   -0.800
  4303 C           -4.199    -9.656     3.986            275  ASP    0.500
  4304 O           -4.448    -9.460     5.207            275  ASP   -0.500
  4305 N           -5.028   -10.329     3.173            276  LEU   -0.500
  4306 H           -4.633   -10.817     2.382            276  LEU    0.300
  4307 CA          -6.314   -10.796     3.650            276  LEU    0.140
  4308 HA          -6.749   -10.057     4.323            276  LEU    0.060
  4309 CB          -7.204   -10.988     2.383            276  LEU   -0.120
  4310 HB2         -7.235   -10.073     1.792            276  LEU    0.060
  4311 HB3         -6.608   -11.636     1.740            276  LEU    0.060
  4312 CG          -8.577   -11.662     2.408            276  LEU   -0.060
  4313 HG          -8.443   -12.696     2.726            276  LEU    0.060
  4314 CD1         -9.478   -10.956     3.427            276  LEU   -0.180
  4315 HD11        -8.885   -10.541     4.242            276  LEU    0.060
  4316 HD12       -10.193   -11.656     3.858            276  LEU    0.060
  4317 HD13       -10.035   -10.143     2.962            276  LEU    0.060
  4318 CD2         -9.282   -11.665     1.107            276  LEU   -0.180
  4319 HD21        -8.892   -10.883     0.455            276  LEU    0.060
  4320 HD22       -10.347   -11.482     1.246            276  LEU    0.060
  4321 HD23        -9.164   -12.622     0.599            276  LEU    0.060
  4322 C           -6.177   -12.102     4.352            276  LEU    0.500
  4323 O           -7.066   -12.496     5.072            276  LEU   -0.500
  4324 N           -5.113   -12.868     4.131            277  ARG   -0.500
  4325 H           -4.300   -12.450     3.701            277  ARG    0.300
  4326 CA          -4.941   -14.155     4.735            277  ARG    0.140
  4327 HA          -5.832   -14.753     4.546            277  ARG    0.060
  4328 CB          -3.722   -14.920     4.156            277  ARG   -0.120
  4329 HB2         -2.826   -14.301     4.195            277  ARG    0.060
  4330 HB3         -3.902   -15.095     3.095            277  ARG    0.060
  4331 CG          -3.468   -16.297     4.840            277  ARG   -0.050
  4332 HG2         -4.389   -16.877     4.894            277  ARG    0.060
  4333 HG3         -3.185   -16.116     5.877            277  ARG    0.060
  4334 CD          -2.364   -17.103     4.182            277  ARG    0.190
  4335 HD2         -2.172   -18.020     4.740            277  ARG    0.060
  4336 HD3         -2.700   -17.279     3.160            277  ARG    0.060
  4337 NE          -1.129   -16.287     4.134            277  ARG   -0.700
  4338 HE          -1.066   -15.533     4.803            277  ARG    0.440
  4339 CZ          -0.039   -16.731     3.613            277  ARG    0.640
  4340 NH1          0.071   -17.967     3.195            277  ARG   -0.800
  4341 HH11         0.194   -18.158     2.211            277  ARG    0.460
  4342 HH12        -0.195   -18.720     3.813            277  ARG    0.460
  4343 NH2          0.944   -15.931     3.472            277  ARG   -0.800
  4344 HH21         1.505   -15.675     4.272            277  ARG    0.460
  4345 HH22         1.058   -15.430     2.602            277  ARG    0.460
  4346 C           -4.783   -13.958     6.252            277  ARG    0.500
  4347 O           -5.376   -14.704     7.012            277  ARG   -0.500
  4348 N           -4.058   -12.915     6.672            278  GLU   -0.500
  4349 H           -3.984   -12.105     6.073            278  GLU    0.300
  4350 CA          -3.950   -12.695     8.076            278  GLU    0.140
  4351 HA          -3.517   -13.571     8.560            278  GLU    0.060
  4352 CB          -2.996   -11.543     8.352            278  GLU   -0.120
  4353 HB2         -3.289   -11.006     9.254            278  GLU    0.060
  4354 HB3         -3.006   -10.922     7.456            278  GLU    0.060
  4355 CG          -1.547   -12.044     8.463            278  GLU   -0.220
  4356 HG2         -1.211   -12.463     7.514            278  GLU    0.060
  4357 HG3         -1.584   -12.809     9.239            278  GLU    0.060
  4358 CD          -0.600   -10.948     8.891            278  GLU    0.700
  4359 OE1         -0.854    -9.758     8.586            278  GLU   -0.800
  4360 OE2          0.428   -11.247     9.590            278  GLU   -0.800
  4361 C           -5.386   -12.364     8.764            278  GLU    0.500
  4362 O           -5.752   -13.100     9.739            278  GLU   -0.500
  4363 N           -6.151   -11.481     8.150            279  PHE   -0.500
  4364 H           -5.688   -10.726     7.664            279  PHE    0.300
  4365 CA          -7.484   -11.201     8.642            279  PHE    0.140
  4366 HA          -7.408   -10.793     9.650            279  PHE    0.060
  4367 CB          -8.192   -10.217     7.735            279  PHE   -0.005
  4368 HB2         -7.577    -9.331     7.577            279  PHE    0.060
  4369 HB3         -8.328   -10.671     6.753            279  PHE    0.060
  4370 CG          -9.573    -9.795     8.252            279  PHE   -0.115
  4371 CD1         -9.637    -9.064     9.477            279  PHE   -0.115
  4372 HD1         -8.746    -9.031    10.086            279  PHE    0.115
  4373 CE1        -10.848    -8.678    10.068            279  PHE   -0.115
  4374 HE1        -10.833    -8.437    11.121            279  PHE    0.115
  4375 CZ         -12.035    -9.072     9.522            279  PHE   -0.115
  4376 HZ         -12.924    -8.507     9.760            279  PHE    0.115
  4377 CE2        -11.979    -9.758     8.309            279  PHE   -0.115
  4378 HE2        -12.911   -10.023     7.833            279  PHE    0.115
  4379 CD2        -10.794   -10.060     7.640            279  PHE   -0.115
  4380 HD2        -10.823   -10.098     6.561            279  PHE    0.115
  4381 C           -8.309   -12.496     8.691            279  PHE    0.500
  4382 O           -8.845   -12.851     9.739            279  PHE   -0.500
  4383 N           -8.342   -13.204     7.587            280  GLU   -0.500
  4384 H           -7.565   -13.059     6.958            280  GLU    0.300
  4385 CA          -9.071   -14.519     7.439            280  GLU    0.140
  4386 HA         -10.150   -14.363     7.446            280  GLU    0.060
  4387 CB          -8.783   -15.235     6.117            280  GLU   -0.120
  4388 HB2         -7.709   -15.316     5.950            280  GLU    0.060
  4389 HB3         -9.164   -16.249     6.241            280  GLU    0.060
  4390 CG          -9.499   -14.692     4.839            280  GLU   -0.220
  4391 HG2         -9.250   -13.644     4.674            280  GLU    0.060
  4392 HG3        -10.580   -14.742     4.971            280  GLU    0.060
  4393 CD          -9.124   -15.497     3.616            280  GLU    0.700
  4394 OE1         -8.524   -16.584     3.760            280  GLU   -0.800
  4395 OE2         -9.472   -15.109     2.480            280  GLU   -0.800
  4396 C           -8.730   -15.504     8.547            280  GLU    0.500
  4397 O           -9.564   -16.230     9.058            280  GLU   -0.500
  4398 N           -7.490   -15.492     9.020            281  GLU   -0.500
  4399 H           -6.775   -15.037     8.470            281  GLU    0.300
  4400 CA          -7.039   -16.384    10.085            281  GLU    0.140
  4401 HA          -7.508   -17.354     9.917            281  GLU    0.060
  4402 CB          -5.543   -16.545     9.975            281  GLU   -0.120
  4403 HB2         -5.105   -16.740    10.954            281  GLU    0.060
  4404 HB3         -5.134   -15.576     9.688            281  GLU    0.060
  4405 CG          -5.046   -17.576     8.943            281  GLU   -0.220
  4406 HG2         -5.468   -17.369     7.960            281  GLU    0.060
  4407 HG3         -5.395   -18.538     9.318            281  GLU    0.060
  4408 CD          -3.516   -17.616     8.843            281  GLU    0.700
  4409 OE1         -2.922   -16.505     8.749            281  GLU   -0.800
  4410 OE2         -2.854   -18.696     8.956            281  GLU   -0.800
  4411 C           -7.440   -15.926    11.451            281  GLU    0.500
  4412 O           -7.921   -16.743    12.284            281  GLU   -0.500
  4413 N           -7.441   -14.606    11.704            282  ALA   -0.500
  4414 H           -7.533   -14.005    10.898            282  ALA    0.300
  4415 CA          -7.845   -13.970    12.993            282  ALA    0.140
  4416 HA          -7.298   -14.461    13.797            282  ALA    0.060
  4417 CB          -7.420   -12.448    13.024            282  ALA   -0.180
  4418 HB1         -7.149   -12.145    14.035            282  ALA    0.060
  4419 HB2         -8.242   -11.812    12.695            282  ALA    0.060
  4420 HB3         -6.566   -12.266    12.372            282  ALA    0.060
  4421 C           -9.357   -14.062    13.333            282  ALA    0.500
  4422 O           -9.729   -14.117    14.502            282  ALA   -0.500
  4423 N          -10.198   -14.149    12.284            283  VAL   -0.500
  4424 H           -9.801   -14.263    11.362            283  VAL    0.300
  4425 CA         -11.644   -14.243    12.394            283  VAL    0.140
  4426 HA         -11.900   -14.061    13.438            283  VAL    0.060
  4427 CB         -12.384   -13.180    11.504            283  VAL   -0.060
  4428 HB         -13.447   -13.239    11.736            283  VAL    0.060
  4429 CG1        -11.903   -11.726    11.853            283  VAL   -0.180
  4430 HG11       -12.587   -11.253    12.558            283  VAL    0.060
  4431 HG12       -10.913   -11.746    12.309            283  VAL    0.060
  4432 HG13       -11.893   -11.107    10.956            283  VAL    0.060
  4433 CG2        -12.209   -13.526     9.941            283  VAL   -0.180
  4434 HG21       -11.173   -13.780     9.717            283  VAL    0.060
  4435 HG22       -12.481   -12.669     9.325            283  VAL    0.060
  4436 HG23       -12.838   -14.368     9.652            283  VAL    0.060
  4437 C          -12.178   -15.625    12.031            283  VAL    0.500
  4438 O          -13.381   -15.811    11.976            283  VAL   -0.500
  4439 N          -11.272   -16.616    11.879            284  ASP   -0.500
  4440 H          -10.294   -16.391    11.990            284  ASP    0.300
  4441 CA         -11.607   -18.032    11.542            284  ASP    0.140
  4442 HA         -10.681   -18.530    11.256            284  ASP    0.060
  4443 CB         -12.200   -18.745    12.785            284  ASP   -0.220
  4444 HB2        -13.203   -18.376    12.999            284  ASP    0.060
  4445 HB3        -11.596   -18.503    13.659            284  ASP    0.060
  4446 CG         -12.236   -20.247    12.648            284  ASP    0.700
  4447 OD1        -11.276   -20.849    12.067            284  ASP   -0.800
  4448 OD2        -13.169   -20.935    13.117            284  ASP   -0.800
  4449 C          -12.610   -18.149    10.320            284  ASP    0.500
  4450 O          -13.390   -19.060    10.274            284  ASP   -0.500
  4451 N          -12.459   -17.296     9.303            285  LEU   -0.500
  4452 H          -12.152   -16.358     9.516            285  LEU    0.300
  4453 CA         -13.218   -17.461     8.103            285  LEU    0.140
  4454 HA         -13.773   -18.399     8.127            285  LEU    0.060
  4455 CB         -14.278   -16.304     8.001            285  LEU   -0.120
  4456 HB2        -13.811   -15.337     8.185            285  LEU    0.060
  4457 HB3        -14.617   -16.254     6.966            285  LEU    0.060
  4458 CG         -15.495   -16.482     8.875            285  LEU   -0.060
  4459 HG         -15.182   -16.743     9.886            285  LEU    0.060
  4460 CD1        -16.294   -15.196     8.910            285  LEU   -0.180
  4461 HD11       -16.725   -14.982     7.932            285  LEU    0.060
  4462 HD12       -15.657   -14.355     9.185            285  LEU    0.060
  4463 HD13       -17.107   -15.259     9.634            285  LEU    0.060
  4464 CD2        -16.368   -17.562     8.331            285  LEU   -0.180
  4465 HD21       -17.029   -17.949     9.106            285  LEU    0.060
  4466 HD22       -15.767   -18.393     7.962            285  LEU    0.060
  4467 HD23       -16.983   -17.194     7.510            285  LEU    0.060
  4468 C          -12.322   -17.357     6.832            285  LEU    0.500
  4469 O          -11.785   -16.277     6.646            285  LEU   -0.500
  4470 N          -12.259   -18.382     5.985            286  PRO   -0.140
  4471 CD         -12.620   -19.807     6.195            286  PRO   -0.050
  4472 HD2        -13.648   -19.874     6.551            286  PRO    0.060
  4473 HD3        -11.956   -20.270     6.925            286  PRO    0.060
  4474 CG         -12.490   -20.416     4.878            286  PRO   -0.120
  4475 HG2        -13.421   -20.325     4.318            286  PRO    0.060
  4476 HG3        -12.079   -21.412     5.046            286  PRO    0.060
  4477 CB         -11.411   -19.656     4.221            286  PRO   -0.120
  4478 HB2        -10.435   -20.012     4.549            286  PRO    0.060
  4479 HB3        -11.581   -19.734     3.147            286  PRO    0.060
  4480 CA         -11.643   -18.207     4.681            286  PRO    0.010
  4481 HA         -10.698   -17.676     4.789            286  PRO    0.060
  4482 C          -12.583   -17.419     3.723            286  PRO    0.500
  4483 O          -13.236   -17.996     2.855            286  PRO   -0.500
  4484 N          -12.586   -16.120     3.887            287  LEU   -0.500
  4485 H          -13.314   -16.276     4.569            287  LEU    0.300
  4486 CA         -13.464   -15.244     3.140            287  LEU    0.140
  4487 HA         -14.493   -15.471     3.419            287  LEU    0.060
  4488 CB         -13.152   -13.766     3.464            287  LEU   -0.120
  4489 HB2        -13.113   -13.069     2.627            287  LEU    0.060
  4490 HB3        -12.082   -13.805     3.669            287  LEU    0.060
  4491 CG         -13.711   -13.230     4.808            287  LEU   -0.060
  4492 HG         -13.236   -13.761     5.633            287  LEU    0.060
  4493 CD1        -13.366   -11.702     4.903            287  LEU   -0.180
  4494 HD11       -13.926   -11.134     4.161            287  LEU    0.060
  4495 HD12       -13.625   -11.310     5.887            287  LEU    0.060
  4496 HD13       -12.292   -11.620     4.735            287  LEU    0.060
  4497 CD2        -15.141   -13.311     4.949            287  LEU   -0.180
  4498 HD21       -15.456   -12.909     5.912            287  LEU    0.060
  4499 HD22       -15.637   -12.735     4.168            287  LEU    0.060
  4500 HD23       -15.485   -14.343     4.882            287  LEU    0.060
  4501 C          -13.322   -15.425     1.604            287  LEU    0.500
  4502 O          -14.357   -15.572     0.915            287  LEU   -0.500
  4503 N          -12.110   -15.459     1.086            288  ARG   -0.500
  4504 H          -11.404   -14.959     1.606            288  ARG    0.300
  4505 CA         -11.868   -15.508    -0.334            288  ARG    0.140
  4506 HA         -12.255   -14.595    -0.787            288  ARG    0.060
  4507 CB         -10.347   -15.512    -0.605            288  ARG   -0.120
  4508 HB2         -9.834   -14.825     0.068            288  ARG    0.060
  4509 HB3        -10.029   -16.537    -0.412            288  ARG    0.060
  4510 CG          -9.944   -15.231    -2.095            288  ARG   -0.050
  4511 HG2        -10.464   -15.911    -2.769            288  ARG    0.060
  4512 HG3        -10.220   -14.194    -2.286            288  ARG    0.060
  4513 CD          -8.412   -15.280    -2.342            288  ARG    0.190
  4514 HD2         -7.881   -14.721    -1.572            288  ARG    0.060
  4515 HD3         -8.161   -14.842    -3.308            288  ARG    0.060
  4516 NE          -7.988   -16.659    -2.312            288  ARG   -0.700
  4517 HE          -8.723   -17.349    -2.250            288  ARG    0.440
  4518 CZ          -6.756   -17.090    -2.568            288  ARG    0.640
  4519 NH1         -6.497   -18.394    -2.429            288  ARG   -0.800
  4520 HH11        -5.640   -18.781    -2.798            288  ARG    0.460
  4521 HH12        -7.252   -19.020    -2.188            288  ARG    0.460
  4522 NH2         -5.792   -16.330    -3.005            288  ARG   -0.800
  4523 HH21        -5.707   -15.380    -2.672            288  ARG    0.460
  4524 HH22        -4.954   -16.781    -3.343            288  ARG    0.460
  4525 C          -12.539   -16.807    -0.972            288  ARG    0.500
  4526 O          -12.871   -16.844    -2.102            288  ARG   -0.500
  4527 N          -12.733   -17.868    -0.218            289  GLY   -0.500
  4528 H          -12.162   -17.948     0.611            289  GLY    0.300
  4529 CA         -13.332   -19.133    -0.725            289  GLY    0.080
  4530 HA2        -13.355   -19.871     0.077            289  GLY    0.060
  4531 HA3        -12.721   -19.532    -1.535            289  GLY    0.060
  4532 C          -14.771   -18.876    -1.233            289  GLY    0.500
  4533 O          -15.258   -19.472    -2.214            289  GLY   -0.500
  4534 N          -15.434   -17.893    -0.607            290  LYS   -0.500
  4535 H          -14.964   -17.411     0.146            290  LYS    0.300
  4536 CA         -16.773   -17.449    -0.928            290  LYS    0.140
  4537 HA         -17.288   -18.249    -1.460            290  LYS    0.060
  4538 CB         -17.521   -17.121     0.387            290  LYS   -0.120
  4539 HB2        -16.832   -16.728     1.135            290  LYS    0.060
  4540 HB3        -17.848   -18.071     0.809            290  LYS    0.060
  4541 CG         -18.820   -16.195     0.273            290  LYS   -0.120
  4542 HG2        -19.210   -15.847    -0.684            290  LYS    0.060
  4543 HG3        -19.467   -17.057     0.114            290  LYS    0.060
  4544 CD         -19.492   -15.867     1.600            290  LYS   -0.120
  4545 HD2        -19.484   -16.735     2.260            290  LYS    0.060
  4546 HD3        -18.860   -15.100     2.048            290  LYS    0.060
  4547 CE         -20.890   -15.233     1.558            290  LYS    0.190
  4548 HE2        -20.879   -14.312     0.975            290  LYS    0.060
  4549 HE3        -21.121   -14.982     2.593            290  LYS    0.060
  4550 NZ         -21.964   -16.160     1.020            290  LYS   -0.300
  4551 HZ1        -21.928   -17.039     1.517            290  LYS    0.330
  4552 HZ2        -22.872   -15.736     1.148            290  LYS    0.330
  4553 HZ3        -21.805   -16.323     0.036            290  LYS    0.330
  4554 C          -16.778   -16.203    -1.799            290  LYS    0.500
  4555 O          -17.405   -16.181    -2.853            290  LYS   -0.500
  4556 N          -16.048   -15.176    -1.370            291  LEU   -0.500
  4557 H          -15.326   -15.331    -0.681            291  LEU    0.300
  4558 CA         -16.118   -13.889    -2.003            291  LEU    0.140
  4559 HA         -17.168   -13.642    -2.161            291  LEU    0.060
  4560 CB         -15.463   -12.813    -1.125            291  LEU   -0.120
  4561 HB2        -15.092   -11.991    -1.737            291  LEU    0.060
  4562 HB3        -14.601   -13.314    -0.685            291  LEU    0.060
  4563 CG         -16.274   -12.266     0.100            291  LEU   -0.060
  4564 HG         -16.361   -13.087     0.812            291  LEU    0.060
  4565 CD1        -15.485   -11.159     0.786            291  LEU   -0.180
  4566 HD11       -16.093   -10.260     0.889            291  LEU    0.060
  4567 HD12       -15.177   -11.468     1.785            291  LEU    0.060
  4568 HD13       -14.591   -10.903     0.217            291  LEU    0.060
  4569 CD2        -17.681   -11.788    -0.193            291  LEU   -0.180
  4570 HD21       -18.062   -12.248    -1.105            291  LEU    0.060
  4571 HD22       -17.701   -10.707    -0.330            291  LEU    0.060
  4572 HD23       -18.358   -12.040     0.624            291  LEU    0.060
  4573 C          -15.424   -13.904    -3.354            291  LEU    0.500
  4574 O          -15.658   -13.049    -4.141            291  LEU   -0.500
  4575 N          -14.572   -14.891    -3.603            292  GLY   -0.500
  4576 H          -14.193   -15.415    -2.827            292  GLY    0.300
  4577 CA         -13.885   -14.979    -4.863            292  GLY    0.080
  4578 HA2        -13.251   -14.102    -4.995            292  GLY    0.060
  4579 HA3        -13.252   -15.866    -4.857            292  GLY    0.060
  4580 C          -14.871   -15.082    -6.044            292  GLY    0.500
  4581 O          -14.965   -14.138    -6.788            292  GLY   -0.500
  4582 N          -15.728   -16.118    -6.134            293  PRO   -0.140
  4583 CD         -15.800   -17.347    -5.379            293  PRO   -0.050
  4584 HD2        -14.809   -17.602    -5.004            293  PRO    0.060
  4585 HD3        -16.527   -17.292    -4.569            293  PRO    0.060
  4586 CG         -16.218   -18.311    -6.517            293  PRO   -0.120
  4587 HG2        -15.402   -18.444    -7.227            293  PRO    0.060
  4588 HG3        -16.667   -19.182    -6.040            293  PRO    0.060
  4589 CB         -17.313   -17.591    -7.126            293  PRO   -0.120
  4590 HB2        -17.517   -17.975    -8.125            293  PRO    0.060
  4591 HB3        -18.142   -17.616    -6.419            293  PRO    0.060
  4592 CA         -16.711   -16.136    -7.201            293  PRO    0.010
  4593 HA         -16.213   -16.144    -8.171            293  PRO    0.060
  4594 C          -17.872   -15.126    -7.143            293  PRO    0.500
  4595 O          -18.365   -14.639    -8.194            293  PRO   -0.500
  4596 N          -18.282   -14.666    -5.929            294  GLU   -0.500
  4597 H          -17.661   -14.814    -5.146            294  GLU    0.300
  4598 CA         -19.339   -13.683    -5.736            294  GLU    0.140
  4599 HA         -20.220   -13.998    -6.295            294  GLU    0.060
  4600 CB         -19.689   -13.519    -4.243            294  GLU   -0.120
  4601 HB2        -18.783   -13.446    -3.642            294  GLU    0.060
  4602 HB3        -20.202   -12.567    -4.111            294  GLU    0.060
  4603 CG         -20.625   -14.673    -3.702            294  GLU   -0.220
  4604 HG2        -20.147   -15.645    -3.825            294  GLU    0.060
  4605 HG3        -21.529   -14.707    -4.310            294  GLU    0.060
  4606 CD         -21.046   -14.500    -2.269            294  GLU    0.700
  4607 OE1        -20.561   -13.584    -1.581            294  GLU   -0.800
  4608 OE2        -21.820   -15.335    -1.813            294  GLU   -0.800
  4609 C          -18.837   -12.315    -6.311            294  GLU    0.500
  4610 O          -19.549   -11.588    -7.008            294  GLU   -0.500
  4611 N          -17.572   -12.004    -6.040            295  GLN   -0.500
  4612 H          -16.915   -12.761    -5.916            295  GLN    0.300
  4613 CA         -17.050   -10.773    -6.558            295  GLN    0.140
  4614 HA         -17.729    -9.987    -6.226            295  GLN    0.060
  4615 CB         -15.636   -10.463    -5.970            295  GLN   -0.120
  4616 HB2        -14.970   -11.316    -6.099            295  GLN    0.060
  4617 HB3        -15.772   -10.253    -4.909            295  GLN    0.060
  4618 CG         -14.976    -9.144    -6.550            295  GLN   -0.120
  4619 HG2        -13.964    -9.019    -6.166            295  GLN    0.060
  4620 HG3        -14.929    -9.271    -7.632            295  GLN    0.060
  4621 CD         -15.780    -7.864    -6.294            295  GLN    0.500
  4622 OE1        -16.637    -7.873    -5.390            295  GLN   -0.500
  4623 NE2        -15.609    -6.861    -7.082            295  GLN   -0.760
  4624 HE21       -15.118    -6.042    -6.753            295  GLN    0.380
  4625 HE22       -16.060    -6.850    -7.986            295  GLN    0.380
  4626 C          -17.054   -10.729    -8.090            295  GLN    0.500
  4627 O          -17.422    -9.741    -8.737            295  GLN   -0.500
  4628 N          -16.835   -11.940    -8.694            296  LYS   -0.500
  4629 H          -16.942   -12.788    -8.156            296  LYS    0.300
  4630 CA         -16.784   -12.053   -10.159            296  LYS    0.140
  4631 HA         -16.146   -11.255   -10.538            296  LYS    0.060
  4632 CB         -15.953   -13.273   -10.407            296  LYS   -0.120
  4633 HB2        -16.497   -14.173   -10.121            296  LYS    0.060
  4634 HB3        -15.098   -13.238    -9.732            296  LYS    0.060
  4635 CG         -15.432   -13.393   -11.799            296  LYS   -0.120
  4636 HG2        -15.253   -12.408   -12.229            296  LYS    0.060
  4637 HG3        -16.170   -13.887   -12.431            296  LYS    0.060
  4638 CD         -14.099   -14.235   -11.767            296  LYS   -0.120
  4639 HD2        -14.299   -15.262   -11.460            296  LYS    0.060
  4640 HD3        -13.446   -13.781   -11.022            296  LYS    0.060
  4641 CE         -13.356   -14.204   -13.077            296  LYS    0.190
  4642 HE2        -13.166   -13.177   -13.388            296  LYS    0.060
  4643 HE3        -12.375   -14.657   -12.935            296  LYS    0.060
  4644 NZ         -14.044   -14.953   -14.200            296  LYS   -0.300
  4645 HZ1        -13.475   -15.739   -14.480            296  LYS    0.330
  4646 HZ2        -14.944   -15.284   -13.884            296  LYS    0.330
  4647 HZ3        -14.171   -14.334   -14.988            296  LYS    0.330
  4648 C          -18.153   -12.070   -10.894            296  LYS    0.500
  4649 O          -18.258   -11.769   -12.099            296  LYS   -0.500
  4650 N          -19.225   -12.385   -10.143            297  LEU   -0.500
  4651 H          -19.049   -12.781    -9.231            297  LEU    0.300
  4652 CA         -20.655   -12.201   -10.508            297  LEU    0.140
  4653 HA         -20.808   -12.498   -11.545            297  LEU    0.060
  4654 CB         -21.550   -13.127    -9.666            297  LEU   -0.120
  4655 HB2        -22.603   -12.904    -9.836            297  LEU    0.060
  4656 HB3        -21.391   -12.857    -8.622            297  LEU    0.060
  4657 CG         -21.298   -14.600    -9.777            297  LEU   -0.060
  4658 HG         -20.229   -14.807    -9.739            297  LEU    0.060
  4659 CD1        -22.002   -15.284    -8.655            297  LEU   -0.180
  4660 HD11       -21.333   -15.980    -8.149            297  LEU    0.060
  4661 HD12       -22.349   -14.559    -7.919            297  LEU    0.060
  4662 HD13       -22.865   -15.843    -9.016            297  LEU    0.060
  4663 CD2        -21.903   -15.064   -11.163            297  LEU   -0.180
  4664 HD21       -22.935   -14.728   -11.265            297  LEU    0.060
  4665 HD22       -21.333   -14.645   -11.992            297  LEU    0.060
  4666 HD23       -21.887   -16.150   -11.253            297  LEU    0.060
  4667 C          -21.149   -10.739   -10.310            297  LEU    0.500
  4668 O          -22.021   -10.238   -10.973            297  LEU   -0.500
  4669 N          -20.521   -10.047    -9.371            298  ILE   -0.500
  4670 H          -19.655   -10.424    -9.013            298  ILE    0.300
  4671 CA         -20.833    -8.674    -8.995            298  ILE    0.140
  4672 HA         -21.917    -8.563    -8.964            298  ILE    0.060
  4673 CB         -20.286    -8.297    -7.532            298  ILE   -0.060
  4674 HB         -19.419    -8.935    -7.362            298  ILE    0.060
  4675 CG2        -19.780    -6.870    -7.395            298  ILE   -0.180
  4676 HG21       -20.261    -6.219    -8.125            298  ILE    0.060
  4677 HG22       -20.000    -6.476    -6.403            298  ILE    0.060
  4678 HG23       -18.705    -6.937    -7.560            298  ILE    0.060
  4679 CG1        -21.342    -8.720    -6.469            298  ILE   -0.120
  4680 HG12       -21.918    -9.577    -6.819            298  ILE    0.060
  4681 HG13       -22.068    -7.913    -6.373            298  ILE    0.060
  4682 CD1        -20.737    -9.002    -5.053            298  ILE   -0.180
  4683 HD11       -21.495    -9.413    -4.386            298  ILE    0.060
  4684 HD12       -20.364    -8.081    -4.605            298  ILE    0.060
  4685 HD13       -19.913    -9.713    -5.112            298  ILE    0.060
  4686 C          -20.266    -7.691   -10.079            298  ILE    0.500
  4687 O          -20.893    -6.674   -10.320            298  ILE   -0.500
  4688 N          -19.072    -7.938   -10.592            299  SER   -0.500
  4689 H          -18.434    -8.551   -10.106            299  SER    0.300
  4690 CA         -18.520    -6.981   -11.563            299  SER    0.140
  4691 HA         -18.439    -5.984   -11.130            299  SER    0.060
  4692 CB         -17.088    -7.401   -12.004            299  SER    0.145
  4693 HB2        -16.861    -7.009   -12.995            299  SER    0.060
  4694 HB3        -16.356    -6.965   -11.324            299  SER    0.060
  4695 OG         -16.915    -8.795   -12.000            299  SER   -0.683
  4696 HG         -16.599    -9.056   -12.851            299  SER    0.418
  4697 C          -19.324    -6.889   -12.855            299  SER    0.500
  4698 O          -19.968    -5.861   -13.089            299  SER   -0.500
  4699 O99          8.301    -6.381    -2.992            300  STO   -0.000
  4700 C98          8.029    -6.449    -1.586            300  STO   -0.000
  4701 C96          8.077    -7.838    -0.987            300  STO    0.000
  4702 C1           8.950    -8.091     0.067            300  STO   -0.000
  4703 C2           8.872    -9.351     0.619            300  STO   -0.000
  4704 C3           7.913   -10.291     0.203            300  STO   -0.000
  4705 C4           7.071    -9.996    -0.882            300  STO   -0.000
  4706 C5           7.141    -8.754    -1.459            300  STO   -0.000
  4707 C99          9.225    -5.675    -2.072            300  STO   -0.000
  4708 C97         10.627    -6.236    -1.912            300  STO    0.000
  4709 C10         10.946    -7.522    -2.395            300  STO   -0.000
  4710 C11         12.260    -8.014    -2.211            300  STO   -0.000
  4711 C12         13.262    -7.303    -1.601            300  STO   -0.000
  4712 C13         12.904    -6.036    -1.105            300  STO   -0.000
  4713 C14         11.623    -5.488    -1.282            300  STO   -0.000
  4714 H98          7.146    -5.902    -1.263            300  STO    0.000
  4715 H1           9.260    -7.269     0.695            300  STO    0.000
  4716 H2           9.330    -9.504     1.585            300  STO    0.000
  4717 H3           8.009   -11.317     0.527            300  STO    0.000
  4718 H4           6.161   -10.566    -0.998            300  STO    0.000
  4719 H5           6.265    -8.372    -1.962            300  STO    0.000
  4720 H99          9.190    -4.588    -2.111            300  STO    0.000
  4721 H10         10.147    -8.241    -2.500            300  STO    0.000
  4722 H11         12.485    -9.009    -2.565            300  STO    0.000
  4723 H12         14.277    -7.454    -1.937            300  STO    0.000
  4724 H13         13.494    -5.654    -0.285            300  STO    0.000
  4725 H14         11.548    -4.412    -1.335            300  STO    0.000
  4726 O            9.359    -3.862     0.488            301  HO2   -0.834
  4727 H1          10.221    -3.540     0.751            301  HO2    0.417
  4728 H2           8.920    -3.097     0.117            301  HO2    0.417
  4729 O99        -11.865    -2.843     5.253            302  STO   -0.000
  4730 C98        -11.381    -3.382     3.990            302  STO   -0.000
  4731 C96        -11.484    -4.859     3.644            302  STO    0.000
  4732 C1         -12.110    -5.150     2.446            302  STO   -0.000
  4733 C2         -12.176    -6.529     2.067            302  STO   -0.000
  4734 C3         -11.646    -7.514     2.857            302  STO   -0.000
  4735 C4         -11.029    -7.158     4.060            302  STO   -0.000
  4736 C5         -10.979    -5.810     4.505            302  STO   -0.000
  4737 C99        -12.529    -2.431     4.039            302  STO   -0.000
  4738 C97        -14.048    -2.820     3.981            302  STO    0.000
  4739 C10        -14.524    -3.700     4.969            302  STO   -0.000
  4740 C11        -15.871    -4.055     4.966            302  STO   -0.000
  4741 C12        -16.772    -3.476     4.094            302  STO   -0.000
  4742 C13        -16.281    -2.508     3.202            302  STO   -0.000
  4743 C14        -14.918    -2.232     3.070            302  STO   -0.000
  4744 H98        -10.454    -2.968     3.600            302  STO    0.000
  4745 H1         -12.793    -4.437     2.007            302  STO    0.000
  4746 H2         -11.798    -6.586     1.057            302  STO    0.000
  4747 H3         -11.913    -8.545     2.677            302  STO    0.000
  4748 H4         -10.550    -7.924     4.651            302  STO    0.000
  4749 H5         -10.912    -5.596     5.561            302  STO    0.000
  4750 H99        -12.366    -1.392     3.759            302  STO    0.000
  4751 H10        -13.818    -4.332     5.487            302  STO    0.000
  4752 H11        -16.271    -4.515     5.858            302  STO    0.000
  4753 H12        -17.813    -3.436     4.379            302  STO    0.000
  4754 H13        -16.959    -1.711     2.935            302  STO    0.000
  4755 H14        -14.537    -1.846     2.136            302  STO    0.000
  4756 O          -10.311   -12.585    -6.094            303  HOH   -0.834
  4757 H1          -9.531   -12.842    -5.602            303  HOH    0.417
  4758 H2         -10.485   -13.327    -6.673            303  HOH    0.417
  4759 O          -10.311    -9.483     0.110            304  HOH   -0.834
  4760 H1          -9.945   -10.099    -0.524            304  HOH    0.417
  4761 H2          -9.953    -9.763     0.952            304  HOH    0.417
  4762 O          -10.311    -0.177    -2.992            305  HOH   -0.834
  4763 H1         -10.476     0.225    -2.139            305  HOH    0.417
  4764 H2         -11.112    -0.016    -3.491            305  HOH    0.417
  4765 O           -7.209   -15.687    -9.196            306  HOH   -0.834
  4766 H1          -7.269   -15.064    -8.472            306  HOH    0.417
  4767 H2          -6.452   -16.232    -8.983            306  HOH    0.417
  4768 O           -7.209   -15.687    -6.094            307  HOH   -0.834
  4769 H1          -7.509   -14.972    -6.655            307  HOH    0.417
  4770 H2          -6.851   -16.334    -6.701            307  HOH    0.417
  4771 O           -7.209   -12.585   -12.298            308  HOH   -0.834
  4772 H1          -6.805   -12.684   -11.436            308  HOH    0.417
  4773 H2          -6.820   -13.281   -12.827            308  HOH    0.417
  4774 O           -7.209   -12.585    -9.196            309  HOH   -0.834
  4775 H1          -7.648   -12.001    -8.578            309  HOH    0.417
  4776 H2          -6.798   -13.252    -8.646            309  HOH    0.417
  4777 O           -7.209   -12.585    -6.094            310  HOH   -0.834
  4778 H1          -6.834   -12.953    -6.894            310  HOH    0.417
  4779 H2          -7.927   -12.031    -6.399            310  HOH    0.417
  4780 O           -7.209    -9.483   -12.298            311  HOH   -0.834
  4781 H1          -7.942   -10.095   -12.371            311  HOH    0.417
  4782 H2          -7.538    -8.669   -12.678            311  HOH    0.417
  4783 O           -7.209    -9.483    -9.196            312  HOH   -0.834
  4784 H1          -6.525    -9.839    -9.763            312  HOH    0.417
  4785 H2          -6.784    -8.765    -8.728            312  HOH    0.417
  4786 O           -7.209    -6.381   -15.400            313  HOH   -0.834
  4787 H1          -7.370    -5.514   -15.029            313  HOH    0.417
  4788 H2          -8.044    -6.630   -15.797            313  HOH    0.417
  4789 O           -7.209    -6.381   -12.298            314  HOH   -0.834
  4790 H1          -7.589    -7.164   -12.696            314  HOH    0.417
  4791 H2          -6.691    -5.984   -12.998            314  HOH    0.417
  4792 O           -4.107   -18.789   -12.298            315  HOH   -0.834
  4793 H1          -3.670   -19.044   -11.486            315  HOH    0.417
  4794 H2          -4.998   -18.565   -12.031            315  HOH    0.417
  4795 O           -4.107   -18.789    -9.196            316  HOH   -0.834
  4796 H1          -4.950   -18.903    -9.636            316  HOH    0.417
  4797 H2          -3.488   -19.285    -9.731            316  HOH    0.417
  4798 O           -4.107   -18.789    -6.094            317  HOH   -0.834
  4799 H1          -4.461   -18.322    -6.850            317  HOH    0.417
  4800 H2          -3.204   -18.481    -6.023            317  HOH    0.417
  4801 O           -4.107   -18.789     3.212            318  HOH   -0.834
  4802 H1          -3.512   -18.532     2.508            318  HOH    0.417
  4803 H2          -4.000   -18.110     3.878            318  HOH    0.417
  4804 O           -4.107   -18.789     6.314            319  HOH   -0.834
  4805 H1          -3.719   -19.319     5.618            319  HOH    0.417
  4806 H2          -5.046   -18.803     6.131            319  HOH    0.417
  4807 O           -4.107   -15.687   -15.400            320  HOH   -0.834
  4808 H1          -3.476   -15.117   -15.838            320  HOH    0.417
  4809 H2          -3.804   -16.574   -15.594            320  HOH    0.417
  4810 O           -4.107   -15.687   -12.298            321  HOH   -0.834
  4811 H1          -3.392   -15.059   -12.402            321  HOH    0.417
  4812 H2          -4.771   -15.214   -11.797            321  HOH    0.417
  4813 O           -4.107   -15.687    -9.196            322  HOH   -0.834
  4814 H1          -4.258   -15.909    -8.277            322  HOH    0.417
  4815 H2          -4.984   -15.622    -9.574            322  HOH    0.417
  4816 O           -4.107   -15.687    -6.094            323  HOH   -0.834
  4817 H1          -3.430   -16.318    -5.852            323  HOH    0.417
  4818 H2          -4.726   -16.191    -6.623            323  HOH    0.417
  4819 O           -4.107   -12.585   -15.400            324  HOH   -0.834
  4820 H1          -3.502   -11.893   -15.665            324  HOH    0.417
  4821 H2          -4.442   -12.939   -16.224            324  HOH    0.417
  4822 O           -4.107   -12.585   -12.298            325  HOH   -0.834
  4823 H1          -3.582   -12.986   -11.606            325  HOH    0.417
  4824 H2          -3.713   -12.900   -13.111            325  HOH    0.417
  4825 O           -4.107   -12.585    -9.196            326  HOH   -0.834
  4826 H1          -4.623   -12.209    -8.483            326  HOH    0.417
  4827 H2          -4.572   -12.325    -9.991            326  HOH    0.417
  4828 O           -4.107    -9.483   -15.400            327  HOH   -0.834
  4829 H1          -3.540    -9.968   -14.801            327  HOH    0.417
  4830 H2          -3.506    -8.960   -15.930            327  HOH    0.417
  4831 O           -4.107    -9.483   -12.298            328  HOH   -0.834
  4832 H1          -3.905    -8.869   -13.004            328  HOH    0.417
  4833 H2          -4.778   -10.059   -12.666            328  HOH    0.417
  4834 O           -4.107    -9.483    -9.196            329  HOH   -0.834
  4835 H1          -3.335    -9.519    -8.632            329  HOH    0.417
  4836 H2          -4.573    -8.695    -8.916            329  HOH    0.417
  4837 O           -4.107    -9.483    -2.992            330  HOH   -0.834
  4838 H1          -4.707   -10.164    -2.688            330  HOH    0.417
  4839 H2          -4.581    -8.664    -2.848            330  HOH    0.417
  4840 O           -4.107    -9.483     9.416            331  HOH   -0.834
  4841 H1          -4.273    -9.399    10.355            331  HOH    0.417
  4842 H2          -3.822   -10.389     9.303            331  HOH    0.417
  4843 O           -4.107    -6.381   -18.502            332  HOH   -0.834
  4844 H1          -4.960    -6.050   -18.784            332  HOH    0.417
  4845 H2          -4.314    -7.099   -17.904            332  HOH    0.417
  4846 O           -4.107    -6.381   -15.400            333  HOH   -0.834
  4847 H1          -4.156    -5.569   -14.896            333  HOH    0.417
  4848 H2          -4.641    -6.214   -16.177            333  HOH    0.417
  4849 O           -4.107    -6.381   -12.298            334  HOH   -0.834
  4850 H1          -3.754    -7.092   -11.764            334  HOH    0.417
  4851 H2          -3.670    -6.478   -13.144            334  HOH    0.417
  4852 O           -4.107    -6.381    -9.196            335  HOH   -0.834
  4853 H1          -3.563    -7.080    -9.557            335  HOH    0.417
  4854 H2          -3.537    -5.929    -8.574            335  HOH    0.417
  4855 O           -4.107    -6.381     6.314            336  HOH   -0.834
  4856 H1          -4.299    -7.081     5.691            336  HOH    0.417
  4857 H2          -3.449    -6.754     6.899            336  HOH    0.417
  4858 O           -4.107    -3.279   -12.298            337  HOH   -0.834
  4859 H1          -3.800    -2.531   -11.786            337  HOH    0.417
  4860 H2          -4.024    -2.996   -13.209            337  HOH    0.417
  4861 O           -1.005   -21.891    -9.196            338  HOH   -0.834
  4862 H1          -1.172   -22.473    -8.455            338  HOH    0.417
  4863 H2          -1.875   -21.618    -9.487            338  HOH    0.417
  4864 O           -1.005   -21.891    -6.094            339  HOH   -0.834
  4865 H1          -1.609   -21.324    -5.614            339  HOH    0.417
  4866 H2          -0.143   -21.504    -5.945            339  HOH    0.417
  4867 O           -1.005   -21.891    -2.992            340  HOH   -0.834
  4868 H1          -0.990   -22.594    -2.343            340  HOH    0.417
  4869 H2          -0.105   -21.843    -3.314            340  HOH    0.417
  4870 O           -1.005   -21.891     0.110            341  HOH   -0.834
  4871 H1          -1.496   -22.328    -0.586            341  HOH    0.417
  4872 H2          -1.537   -21.129     0.337            341  HOH    0.417
  4873 O           -1.005   -21.891     3.212            342  HOH   -0.834
  4874 H1          -0.417   -21.447     2.603            342  HOH    0.417
  4875 H2          -1.829   -21.976     2.732            342  HOH    0.417
  4876 O           -1.005   -18.789   -15.400            343  HOH   -0.834
  4877 H1          -1.271   -18.234   -16.133            343  HOH    0.417
  4878 H2          -1.614   -19.527   -15.425            343  HOH    0.417
  4879 O           -1.005   -18.789   -12.298            344  HOH   -0.834
  4880 H1          -0.325   -19.253   -11.810            344  HOH    0.417
  4881 H2          -1.173   -18.000   -11.784            344  HOH    0.417
  4882 O           -1.005   -18.789    -9.196            345  HOH   -0.834
  4883 H1          -1.442   -17.949    -9.060            345  HOH    0.417
  4884 H2          -1.090   -18.955   -10.135            345  HOH    0.417
  4885 O           -1.005   -18.789     0.110            346  HOH   -0.834
  4886 H1          -0.965   -17.857    -0.103            346  HOH    0.417
  4887 H2          -1.378   -18.819     0.991            346  HOH    0.417
  4888 O           -1.005   -15.687   -15.400            347  HOH   -0.834
  4889 H1          -1.737   -15.750   -14.787            347  HOH    0.417
  4890 H2          -0.793   -14.754   -15.425            347  HOH    0.417
  4891 O           -1.005   -15.687   -12.298            348  HOH   -0.834
  4892 H1          -0.439   -16.443   -12.454            348  HOH    0.417
  4893 H2          -1.889   -16.052   -12.271            348  HOH    0.417
  4894 O           -1.005   -15.687    -9.196            349  HOH   -0.834
  4895 H1          -1.368   -14.972    -8.674            349  HOH    0.417
  4896 H2          -1.200   -16.476    -8.690            349  HOH    0.417
  4897 O           -1.005   -12.585   -18.502            350  HOH   -0.834
  4898 H1          -1.012   -13.421   -18.036            350  HOH    0.417
  4899 H2          -0.387   -12.716   -19.221            350  HOH    0.417
  4900 O           -1.005   -12.585   -15.400            351  HOH   -0.834
  4901 H1          -0.603   -11.932   -15.973            351  HOH    0.417
  4902 H2          -0.300   -12.857   -14.814            351  HOH    0.417
  4903 O           -1.005   -12.585   -12.298            352  HOH   -0.834
  4904 H1          -0.715   -12.905   -13.152            352  HOH    0.417
  4905 H2          -0.545   -13.137   -11.666            352  HOH    0.417
  4906 O           -1.005   -12.585    12.518            353  HOH   -0.834
  4907 H1          -1.813   -12.705    12.019            353  HOH    0.417
  4908 H2          -0.528   -13.407    12.403            353  HOH    0.417
  4909 O           -1.005    -9.483   -18.502            354  HOH   -0.834
  4910 H1          -1.190   -10.422   -18.484            354  HOH    0.417
  4911 H2          -1.530    -9.150   -19.230            354  HOH    0.417
  4912 O           -1.005    -9.483   -15.400            355  HOH   -0.834
  4913 H1          -1.828    -9.255   -15.832            355  HOH    0.417
  4914 H2          -0.825   -10.379   -15.686            355  HOH    0.417
  4915 O           -1.005    -9.483   -12.298            356  HOH   -0.834
  4916 H1          -1.345    -8.787   -11.736            356  HOH    0.417
  4917 H2          -1.727   -10.107   -12.371            356  HOH    0.417
  4918 O           -1.005    -9.483    -9.196            357  HOH   -0.834
  4919 H1          -0.816    -8.690    -8.695            357  HOH    0.417
  4920 H2          -0.823    -9.242   -10.104            357  HOH    0.417
  4921 O           -1.005    -9.483    -2.992            358  HOH   -0.834
  4922 H1          -0.329   -10.025    -3.397            358  HOH    0.417
  4923 H2          -1.830    -9.890    -3.257            358  HOH    0.417
  4924 O           -1.005    -6.381   -18.502            359  HOH   -0.834
  4925 H1          -1.418    -6.680   -19.312            359  HOH    0.417
  4926 H2          -1.376    -5.512   -18.351            359  HOH    0.417
  4927 O           -1.005    -6.381   -15.400            360  HOH   -0.834
  4928 H1          -1.719    -6.713   -15.945            360  HOH    0.417
  4929 H2          -0.531    -7.164   -15.123            360  HOH    0.417
  4930 O           -1.005    -6.381   -12.298            361  HOH   -0.834
  4931 H1          -1.511    -6.276   -11.493            361  HOH    0.417
  4932 H2          -1.595    -6.088   -12.992            361  HOH    0.417
  4933 O           -1.005    -6.381    -2.992            362  HOH   -0.834
  4934 H1          -1.595    -6.818    -3.606            362  HOH    0.417
  4935 H2          -0.489    -7.090    -2.610            362  HOH    0.417
  4936 O           -1.005    -6.381     3.212            363  HOH   -0.834
  4937 H1          -0.428    -6.983     2.743            363  HOH    0.417
  4938 H2          -1.887    -6.704     3.030            363  HOH    0.417
  4939 O           -1.005    -6.381     6.314            364  HOH   -0.834
  4940 H1          -1.835    -6.613     6.731            364  HOH    0.417
  4941 H2          -0.898    -5.448     6.498            364  HOH    0.417
  4942 O           -1.005    -6.381     9.416            365  HOH   -0.834
  4943 H1          -0.513    -5.585     9.215            365  HOH    0.417
  4944 H2          -0.972    -6.449    10.370            365  HOH    0.417
  4945 O           -1.005    -6.381    12.518            366  HOH   -0.834
  4946 H1          -0.577    -5.696    12.006            366  HOH    0.417
  4947 H2          -1.252    -5.950    13.336            366  HOH    0.417
  4948 O           -1.005    -3.279   -15.400            367  HOH   -0.834
  4949 H1          -0.146    -2.859   -15.353            367  HOH    0.417
  4950 H2          -1.585    -2.695   -14.912            367  HOH    0.417
  4951 O           -1.005    -3.279   -12.298            368  HOH   -0.834
  4952 H1          -0.395    -3.829   -12.789            368  HOH    0.417
  4953 H2          -0.455    -2.812   -11.669            368  HOH    0.417
  4954 O           -1.005    -3.279    12.518            369  HOH   -0.834
  4955 H1          -0.433    -2.688    13.007            369  HOH    0.417
  4956 H2          -1.127    -2.850    11.672            369  HOH    0.417
  4957 O           -1.005    -0.177    -9.196            370  HOH   -0.834
  4958 H1          -0.560    -0.169   -10.043            370  HOH    0.417
  4959 H2          -1.916     0.032    -9.402            370  HOH    0.417
  4960 O           -1.005    -0.177    12.518            371  HOH   -0.834
  4961 H1          -1.760    -0.571    12.082            371  HOH    0.417
  4962 H2          -0.253    -0.667    12.186            371  HOH    0.417
  4963 O           -1.005     2.925    -9.196            372  HOH   -0.834
  4964 H1          -0.649     3.768    -9.478            372  HOH    0.417
  4965 H2          -1.168     3.035    -8.260            372  HOH    0.417
  4966 O            2.097   -24.993    -2.992            373  HOH   -0.834
  4967 H1           2.211   -24.404    -2.247            373  HOH    0.417
  4968 H2           1.835   -25.827    -2.601            373  HOH    0.417
  4969 O            2.097   -24.993     0.110            374  HOH   -0.834
  4970 H1           1.414   -25.461    -0.371            374  HOH    0.417
  4971 H2           2.911   -25.420    -0.155            374  HOH    0.417
  4972 O            2.097   -21.891    -9.196            375  HOH   -0.834
  4973 H1           3.007   -22.131    -9.371            375  HOH    0.417
  4974 H2           2.126   -21.437    -8.355            375  HOH    0.417
  4975 O            2.097   -21.891    -2.992            376  HOH   -0.834
  4976 H1           1.516   -21.633    -2.277            376  HOH    0.417
  4977 H2           1.519   -22.306    -3.632            376  HOH    0.417
  4978 O            2.097   -21.891     0.110            377  HOH   -0.834
  4979 H1           1.364   -22.306    -0.344            377  HOH    0.417
  4980 H2           1.699   -21.172     0.601            377  HOH    0.417
  4981 O            2.097   -21.891     3.212            378  HOH   -0.834
  4982 H1           1.904   -21.541     2.343            378  HOH    0.417
  4983 H2           1.664   -22.745     3.228            378  HOH    0.417
  4984 O            2.097   -21.891     6.314            379  HOH   -0.834
  4985 H1           1.600   -22.520     6.837            379  HOH    0.417
  4986 H2           1.551   -21.106     6.301            379  HOH    0.417
  4987 O            2.097   -18.789   -15.400            380  HOH   -0.834
  4988 H1           1.825   -17.932   -15.073            380  HOH    0.417
  4989 H2           2.976   -18.914   -15.043            380  HOH    0.417
  4990 O            2.097   -18.789   -12.298            381  HOH   -0.834
  4991 H1           2.817   -18.235   -11.998            381  HOH    0.417
  4992 H2           1.382   -18.603   -11.690            381  HOH    0.417
  4993 O            2.097   -18.789     9.416            382  HOH   -0.834
  4994 H1           2.315   -18.307    10.213            382  HOH    0.417
  4995 H2           1.140   -18.782     9.386            382  HOH    0.417
  4996 O            2.097   -15.687   -18.502            383  HOH   -0.834
  4997 H1           2.330   -15.311   -17.654            383  HOH    0.417
  4998 H2           2.891   -15.601   -19.029            383  HOH    0.417
  4999 O            2.097   -15.687   -15.400            384  HOH   -0.834
  5000 H1           2.955   -15.883   -15.777            384  HOH    0.417
  5001 H2           2.002   -16.311   -14.681            384  HOH    0.417
  5002 O            2.097   -15.687   -12.298            385  HOH   -0.834
  5003 H1           1.197   -15.941   -12.093            385  HOH    0.417
  5004 H2           2.438   -15.331   -11.478            385  HOH    0.417
  5005 O            2.097   -15.687     9.416            386  HOH   -0.834
  5006 H1           2.470   -15.726    10.297            386  HOH    0.417
  5007 H2           2.002   -16.603     9.156            386  HOH    0.417
  5008 O            2.097   -15.687    12.518            387  HOH   -0.834
  5009 H1           2.849   -16.144    12.143            387  HOH    0.417
  5010 H2           2.463   -15.172    13.237            387  HOH    0.417
  5011 O            2.097   -12.585   -18.502            388  HOH   -0.834
  5012 H1           1.540   -11.808   -18.463            388  HOH    0.417
  5013 H2           2.904   -12.282   -18.916            388  HOH    0.417
  5014 O            2.097   -12.585   -15.400            389  HOH   -0.834
  5015 H1           1.588   -13.144   -14.814            389  HOH    0.417
  5016 H2           2.974   -12.571   -15.017            389  HOH    0.417
  5017 O            2.097   -12.585   -12.298            390  HOH   -0.834
  5018 H1           2.225   -11.993   -11.558            390  HOH    0.417
  5019 H2           1.231   -12.965   -12.154            390  HOH    0.417
  5020 O            2.097   -12.585    12.518            391  HOH   -0.834
  5021 H1           1.754   -13.229    13.138            391  HOH    0.417
  5022 H2           2.717   -12.066    13.030            391  HOH    0.417
  5023 O            2.097    -9.483   -21.604            392  HOH   -0.834
  5024 H1           2.647    -8.974   -22.200            392  HOH    0.417
  5025 H2           2.523   -10.339   -21.556            392  HOH    0.417
  5026 O            2.097    -9.483   -18.502            393  HOH   -0.834
  5027 H1           2.759    -9.890   -17.943            393  HOH    0.417
  5028 H2           1.423   -10.155   -18.605            393  HOH    0.417
  5029 O            2.097    -9.483     9.416            394  HOH   -0.834
  5030 H1           2.788    -9.973     8.971            394  HOH    0.417
  5031 H2           2.557    -8.778     9.870            394  HOH    0.417
  5032 O            2.097    -9.483    12.518            395  HOH   -0.834
  5033 H1           2.453    -9.874    11.721            395  HOH    0.417
  5034 H2           2.867    -9.249    13.035            395  HOH    0.417
  5035 O            2.097    -9.483    15.620            396  HOH   -0.834
  5036 H1           2.075    -8.553    15.846            396  HOH    0.417
  5037 H2           2.158    -9.933    16.463            396  HOH    0.417
  5038 O            2.097    -6.381   -21.604            397  HOH   -0.834
  5039 H1           2.645    -7.011   -21.137            397  HOH    0.417
  5040 H2           1.475    -6.920   -22.093            397  HOH    0.417
  5041 O            2.097    -6.381   -18.502            398  HOH   -0.834
  5042 H1           2.336    -7.107   -17.927            398  HOH    0.417
  5043 H2           2.933    -6.044   -18.824            398  HOH    0.417
  5044 O            2.097    -6.381   -15.400            399  HOH   -0.834
  5045 H1           2.395    -6.847   -14.619            399  HOH    0.417
  5046 H2           1.143    -6.375   -15.327            399  HOH    0.417
  5047 O            2.097    -6.381    12.518            400  HOH   -0.834
  5048 H1           2.950    -6.804    12.612            400  HOH    0.417
  5049 H2           1.498    -6.932    13.022            400  HOH    0.417
  5050 O            2.097    -6.381    15.620            401  HOH   -0.834
  5051 H1           2.505    -6.922    16.297            401  HOH    0.417
  5052 H2           1.490    -6.972    15.174            401  HOH    0.417
  5053 O            2.097    -3.279    12.518            402  HOH   -0.834
  5054 H1           1.657    -4.116    12.368            402  HOH    0.417
  5055 H2           2.997    -3.517    12.738            402  HOH    0.417
  5056 O            2.097    -3.279    15.620            403  HOH   -0.834
  5057 H1           2.197    -2.517    16.191            403  HOH    0.417
  5058 H2           1.761    -3.966    16.195            403  HOH    0.417
  5059 O            2.097     2.925   -18.502            404  HOH   -0.834
  5060 H1           1.670     2.119   -18.792            404  HOH    0.417
  5061 H2           2.790     2.631   -17.911            404  HOH    0.417
  5062 O            2.097     6.027   -15.400            405  HOH   -0.834
  5063 H1           2.002     6.523   -16.213            405  HOH    0.417
  5064 H2           2.293     5.135   -15.685            405  HOH    0.417
  5065 O            5.199   -24.993    -2.992            406  HOH   -0.834
  5066 H1           4.303   -25.304    -2.867            406  HOH    0.417
  5067 H2           5.721   -25.516    -2.384            406  HOH    0.417
  5068 O            5.199   -24.993     0.110            407  HOH   -0.834
  5069 H1           5.456   -24.073     0.166            407  HOH    0.417
  5070 H2           5.993   -25.448    -0.169            407  HOH    0.417
  5071 O            5.199   -24.993     3.212            408  HOH   -0.834
  5072 H1           5.818   -24.344     2.878            408  HOH    0.417
  5073 H2           5.459   -25.812     2.791            408  HOH    0.417
  5074 O            5.199   -21.891     6.314            409  HOH   -0.834
  5075 H1           5.552   -21.943     5.426            409  HOH    0.417
  5076 H2           4.941   -20.976     6.417            409  HOH    0.417
  5077 O            5.199   -18.789   -15.400            410  HOH   -0.834
  5078 H1           4.398   -18.518   -14.953            410  HOH    0.417
  5079 H2           4.941   -19.558   -15.908            410  HOH    0.417
  5080 O            5.199   -18.789   -12.298            411  HOH   -0.834
  5081 H1           5.588   -18.268   -11.596            411  HOH    0.417
  5082 H2           4.908   -19.593   -11.868            411  HOH    0.417
  5083 O            5.199   -18.789     9.416            412  HOH   -0.834
  5084 H1           5.025   -19.660     9.060            412  HOH    0.417
  5085 H2           4.644   -18.204     8.902            412  HOH    0.417
  5086 O            5.199   -15.687   -18.502            413  HOH   -0.834
  5087 H1           5.900   -16.144   -18.967            413  HOH    0.417
  5088 H2           5.173   -14.818   -18.902            413  HOH    0.417
  5089 O            5.199   -15.687   -15.400            414  HOH   -0.834
  5090 H1           5.164   -14.812   -15.786            414  HOH    0.417
  5091 H2           4.707   -15.609   -14.583            414  HOH    0.417
  5092 O            5.199   -15.687     9.416            415  HOH   -0.834
  5093 H1           5.587   -15.061    10.027            415  HOH    0.417
  5094 H2           5.899   -15.880     8.793            415  HOH    0.417
  5095 O            5.199   -15.687    12.518            416  HOH   -0.834
  5096 H1           4.687   -16.293    13.054            416  HOH    0.417
  5097 H2           5.702   -16.252    11.931            416  HOH    0.417
  5098 O            5.199   -12.585   -21.604            417  HOH   -0.834
  5099 H1           5.949   -12.895   -21.098            417  HOH    0.417
  5100 H2           4.486   -13.176   -21.363            417  HOH    0.417
  5101 O            5.199   -12.585   -18.502            418  HOH   -0.834
  5102 H1           4.464   -12.816   -17.935            418  HOH    0.417
  5103 H2           5.047   -11.668   -18.730            418  HOH    0.417
  5104 O            5.199   -12.585   -15.400            419  HOH   -0.834
  5105 H1           4.752   -12.745   -16.231            419  HOH    0.417
  5106 H2           5.206   -13.437   -14.964            419  HOH    0.417
  5107 O            5.199   -12.585     9.416            420  HOH   -0.834
  5108 H1           5.276   -11.635     9.329            420  HOH    0.417
  5109 H2           5.801   -12.937     8.760            420  HOH    0.417
  5110 O            5.199   -12.585    12.518            421  HOH   -0.834
  5111 H1           5.866   -13.051    13.023            421  HOH    0.417
  5112 H2           4.890   -11.897    13.107            421  HOH    0.417
  5113 O            5.199   -12.585    15.620            422  HOH   -0.834
  5114 H1           4.386   -12.179    15.921            422  HOH    0.417
  5115 H2           5.395   -13.247    16.283            422  HOH    0.417
  5116 O            5.199    -9.483   -21.604            423  HOH   -0.834
  5117 H1           5.218   -10.437   -21.682            423  HOH    0.417
  5118 H2           4.940    -9.321   -20.698            423  HOH    0.417
  5119 O            5.199    -9.483   -18.502            424  HOH   -0.834
  5120 H1           5.735    -9.708   -17.743            424  HOH    0.417
  5121 H2           5.831    -9.255   -19.184            424  HOH    0.417
  5122 O            5.199    -9.483     3.212            425  HOH   -0.834
  5123 H1           5.799    -8.742     3.135            425  HOH    0.417
  5124 H2           4.578    -9.364     2.494            425  HOH    0.417
  5125 O            5.199    -9.483    15.620            426  HOH   -0.834
  5126 H1           4.691    -8.676    15.699            426  HOH    0.417
  5127 H2           5.763    -9.339    14.861            426  HOH    0.417
  5128 O            5.199    -6.381   -21.604            427  HOH   -0.834
  5129 H1           6.040    -5.949   -21.455            427  HOH    0.417
  5130 H2           5.318    -7.265   -21.259            427  HOH    0.417
  5131 O            5.199    -6.381   -18.502            428  HOH   -0.834
  5132 H1           4.751    -5.902   -19.199            428  HOH    0.417
  5133 H2           5.075    -5.840   -17.723            428  HOH    0.417
  5134 O            5.199    -6.381   -15.400            429  HOH   -0.834
  5135 H1           5.596    -7.249   -15.331            429  HOH    0.417
  5136 H2           5.881    -5.781   -15.101            429  HOH    0.417
  5137 O            5.199    -6.381   -12.298            430  HOH   -0.834
  5138 H1           5.773    -6.042   -11.612            430  HOH    0.417
  5139 H2           4.942    -7.249   -11.989            430  HOH    0.417
  5140 O            5.199    -6.381    -6.094            431  HOH   -0.834
  5141 H1           5.174    -7.270    -5.741            431  HOH    0.417
  5142 H2           5.711    -5.883    -5.457            431  HOH    0.417
  5143 O            5.199    -6.381    15.620            432  HOH   -0.834
  5144 H1           4.631    -5.891    16.214            432  HOH    0.417
  5145 H2           5.783    -6.873    16.198            432  HOH    0.417
  5146 O            5.199    -3.279   -21.604            433  HOH   -0.834
  5147 H1           5.334    -2.917   -20.729            433  HOH    0.417
  5148 H2           6.082    -3.401   -21.951            433  HOH    0.417
  5149 O            5.199    -3.279    -6.094            434  HOH   -0.834
  5150 H1           4.652    -3.790    -6.691            434  HOH    0.417
  5151 H2           5.996    -3.799    -5.994            434  HOH    0.417
  5152 O            5.199    -3.279    15.620            435  HOH   -0.834
  5153 H1           5.477    -3.138    16.525            435  HOH    0.417
  5154 H2           4.620    -4.040    15.663            435  HOH    0.417
  5155 O            5.199    -0.177   -21.604            436  HOH   -0.834
  5156 H1           6.137    -0.012   -21.506            436  HOH    0.417
  5157 H2           5.116    -0.587   -22.465            436  HOH    0.417
  5158 O            5.199     2.925   -18.502            437  HOH   -0.834
  5159 H1           5.900     2.663   -17.906            437  HOH    0.417
  5160 H2           4.396     2.811   -17.994            437  HOH    0.417
  5161 O            5.199     2.925    -6.094            438  HOH   -0.834
  5162 H1           5.344     2.972    -5.149            438  HOH    0.417
  5163 H2           5.962     3.359    -6.476            438  HOH    0.417
  5164 O            5.199     6.027   -15.400            439  HOH   -0.834
  5165 H1           4.687     5.370   -14.929            439  HOH    0.417
  5166 H2           4.780     6.088   -16.259            439  HOH    0.417
  5167 O            5.199     6.027     6.314            440  HOH   -0.834
  5168 H1           5.740     6.066     7.102            440  HOH    0.417
  5169 H2           5.488     5.234     5.864            440  HOH    0.417
  5170 O            5.199     9.129    -9.196            441  HOH   -0.834
  5171 H1           4.272     9.334    -9.315            441  HOH    0.417
  5172 H2           5.425     9.523    -8.354            441  HOH    0.417
  5173 O            8.301   -24.993    -9.196            442  HOH   -0.834
  5174 H1           9.011   -25.634    -9.234            442  HOH    0.417
  5175 H2           8.011   -25.010    -8.284            442  HOH    0.417
  5176 O            8.301   -24.993    -6.094            443  HOH   -0.834
  5177 H1           7.621   -25.265    -6.710            443  HOH    0.417
  5178 H2           8.262   -25.643    -5.393            443  HOH    0.417
  5179 O            8.301   -24.993    -2.992            444  HOH   -0.834
  5180 H1           7.528   -24.841    -2.448            444  HOH    0.417
  5181 H2           8.629   -24.117    -3.194            444  HOH    0.417
  5182 O            8.301   -24.993     0.110            445  HOH   -0.834
  5183 H1           9.240   -24.955    -0.071            445  HOH    0.417
  5184 H2           8.228   -25.555     0.881            445  HOH    0.417
  5185 O            8.301   -24.993     3.212            446  HOH   -0.834
  5186 H1           9.223   -24.849     3.002            446  HOH    0.417
  5187 H2           8.315   -25.633     3.924            446  HOH    0.417
  5188 O            8.301   -21.891   -15.400            447  HOH   -0.834
  5189 H1           9.024   -22.510   -15.504            447  HOH    0.417
  5190 H2           8.037   -21.983   -14.485            447  HOH    0.417
  5191 O            8.301   -21.891     3.212            448  HOH   -0.834
  5192 H1           8.998   -21.440     2.737            448  HOH    0.417
  5193 H2           8.638   -21.981     4.104            448  HOH    0.417
  5194 O            8.301   -21.891     6.314            449  HOH   -0.834
  5195 H1           8.179   -22.155     7.226            449  HOH    0.417
  5196 H2           8.475   -20.951     6.358            449  HOH    0.417
  5197 O            8.301   -21.891     9.416            450  HOH   -0.834
  5198 H1           7.882   -22.472    10.051            450  HOH    0.417
  5199 H2           8.854   -22.469     8.890            450  HOH    0.417
  5200 O            8.301   -18.789   -18.502            451  HOH   -0.834
  5201 H1           7.462   -18.753   -18.961            451  HOH    0.417
  5202 H2           8.742   -19.555   -18.869            451  HOH    0.417
  5203 O            8.301   -18.789   -15.400            452  HOH   -0.834
  5204 H1           8.906   -18.072   -15.586            452  HOH    0.417
  5205 H2           7.869   -18.534   -14.585            452  HOH    0.417
  5206 O            8.301   -18.789     6.314            453  HOH   -0.834
  5207 H1           8.938   -18.279     5.815            453  HOH    0.417
  5208 H2           7.461   -18.599     5.897            453  HOH    0.417
  5209 O            8.301   -18.789     9.416            454  HOH   -0.834
  5210 H1           8.040   -18.069     9.989            454  HOH    0.417
  5211 H2           7.721   -18.715     8.658            454  HOH    0.417
  5212 O            8.301   -18.789    12.518            455  HOH   -0.834
  5213 H1           7.871   -19.178    13.280            455  HOH    0.417
  5214 H2           7.967   -17.893    12.486            455  HOH    0.417
  5215 O            8.301   -15.687   -18.502            456  HOH   -0.834
  5216 H1           8.566   -16.538   -18.154            456  HOH    0.417
  5217 H2           9.101   -15.323   -18.882            456  HOH    0.417
  5218 O            8.301   -15.687   -15.400            457  HOH   -0.834
  5219 H1           8.302   -16.579   -15.053            457  HOH    0.417
  5220 H2           7.986   -15.780   -16.299            457  HOH    0.417
  5221 O            8.301   -15.687    12.518            458  HOH   -0.834
  5222 H1           8.695   -16.317    13.122            458  HOH    0.417
  5223 H2           7.433   -15.515    12.884            458  HOH    0.417
  5224 O            8.301   -12.585   -21.604            459  HOH   -0.834
  5225 H1           8.755   -13.181   -22.201            459  HOH    0.417
  5226 H2           7.912   -13.157   -20.943            459  HOH    0.417
  5227 O            8.301   -12.585   -18.502            460  HOH   -0.834
  5228 H1           8.391   -12.021   -17.735            460  HOH    0.417
  5229 H2           7.576   -12.203   -18.997            460  HOH    0.417
  5230 O            8.301   -12.585   -15.400            461  HOH   -0.834
  5231 H1           8.713   -12.239   -14.609            461  HOH    0.417
  5232 H2           7.705   -11.892   -15.683            461  HOH    0.417
  5233 O            8.301   -12.585     3.212            462  HOH   -0.834
  5234 H1           7.371   -12.403     3.349            462  HOH    0.417
  5235 H2           8.547   -13.145     3.948            462  HOH    0.417
  5236 O            8.301   -12.585     9.416            463  HOH   -0.834
  5237 H1           8.502   -13.168    10.148            463  HOH    0.417
  5238 H2           7.483   -12.157     9.668            463  HOH    0.417
  5239 O            8.301   -12.585    15.620            464  HOH   -0.834
  5240 H1           8.633   -11.961    16.265            464  HOH    0.417
  5241 H2           7.402   -12.302    15.453            464  HOH    0.417
  5242 O            8.301    -9.483   -21.604            465  HOH   -0.834
  5243 H1           7.645   -10.119   -21.890            465  HOH    0.417
  5244 H2           8.376    -9.624   -20.661            465  HOH    0.417
  5245 O            8.301    -9.483   -18.502            466  HOH   -0.834
  5246 H1           7.939    -8.688   -18.894            466  HOH    0.417
  5247 H2           7.691    -9.703   -17.799            466  HOH    0.417
  5248 O            8.301    -9.483   -15.400            467  HOH   -0.834
  5249 H1           7.882    -9.319   -14.556            467  HOH    0.417
  5250 H2           8.614   -10.385   -15.341            467  HOH    0.417
  5251 O            8.301    -9.483     3.212            468  HOH   -0.834
  5252 H1           9.239    -9.650     3.301            468  HOH    0.417
  5253 H2           8.114    -8.812     3.868            468  HOH    0.417
  5254 O            8.301    -9.483    15.620            469  HOH   -0.834
  5255 H1           8.269   -10.398    15.900            469  HOH    0.417
  5256 H2           8.335    -9.525    14.665            469  HOH    0.417
  5257 O            8.301    -6.381   -21.604            470  HOH   -0.834
  5258 H1           7.726    -5.621   -21.517            470  HOH    0.417
  5259 H2           8.086    -6.933   -20.852            470  HOH    0.417
  5260 O            8.301    -6.381   -18.502            471  HOH   -0.834
  5261 H1           7.616    -6.327   -17.836            471  HOH    0.417
  5262 H2           8.953    -6.973   -18.129            471  HOH    0.417
  5263 O            8.301    -6.381   -15.400            472  HOH   -0.834
  5264 H1           8.798    -5.619   -15.102            472  HOH    0.417
  5265 H2           7.592    -6.014   -15.928            472  HOH    0.417
  5266 O            8.301    -6.381    15.620            473  HOH   -0.834
  5267 H1           8.504    -5.691    14.989            473  HOH    0.417
  5268 H2           7.936    -7.090    15.092            473  HOH    0.417
  5269 O            8.301    -3.279   -21.604            474  HOH   -0.834
  5270 H1           8.511    -3.082   -20.692            474  HOH    0.417
  5271 H2           7.345    -3.294   -21.633            474  HOH    0.417
  5272 O            8.301    -3.279   -18.502            475  HOH   -0.834
  5273 H1           8.274    -2.585   -17.844            475  HOH    0.417
  5274 H2           8.395    -2.817   -19.335            475  HOH    0.417
  5275 O            8.301    -3.279   -15.400            476  HOH   -0.834
  5276 H1           9.084    -3.802   -15.228            476  HOH    0.417
  5277 H2           7.771    -3.373   -14.609            476  HOH    0.417
  5278 O            8.301    -0.177   -21.604            477  HOH   -0.834
  5279 H1           8.590    -0.917   -22.138            477  HOH    0.417
  5280 H2           8.241    -0.531   -20.717            477  HOH    0.417
  5281 O            8.301    -0.177   -18.502            478  HOH   -0.834
  5282 H1           9.025    -0.424   -17.927            478  HOH    0.417
  5283 H2           7.595    -0.781   -18.273            478  HOH    0.417
  5284 O            8.301     2.925   -18.502            479  HOH   -0.834
  5285 H1           7.577     2.379   -18.197            479  HOH    0.417
  5286 H2           9.057     2.625   -17.998            479  HOH    0.417
  5287 O            8.301     2.925   -12.298            480  HOH   -0.834
  5288 H1           9.052     3.515   -12.236            480  HOH    0.417
  5289 H2           7.549     3.471   -12.070            480  HOH    0.417
  5290 O            8.301     6.027   -18.502            481  HOH   -0.834
  5291 H1           7.567     6.050   -17.888            481  HOH    0.417
  5292 H2           8.865     6.751   -18.230            481  HOH    0.417
  5293 O            8.301     6.027   -15.400            482  HOH   -0.834
  5294 H1           8.072     6.853   -15.826            482  HOH    0.417
  5295 H2           9.194     6.160   -15.083            482  HOH    0.417
  5296 O            8.301     6.027   -12.298            483  HOH   -0.834
  5297 H1           7.654     6.594   -12.717            483  HOH    0.417
  5298 H2           7.799     5.521   -11.659            483  HOH    0.417
  5299 O            8.301     6.027    -6.094            484  HOH   -0.834
  5300 H1           7.811     5.950    -6.912            484  HOH    0.417
  5301 H2           9.205     6.180    -6.369            484  HOH    0.417
  5302 O            8.301     6.027    12.518            485  HOH   -0.834
  5303 H1           8.427     6.765    11.922            485  HOH    0.417
  5304 H2           7.757     6.379    13.223            485  HOH    0.417
  5305 O            8.301     9.129   -15.400            486  HOH   -0.834
  5306 H1           8.906     9.039   -16.136            486  HOH    0.417
  5307 H2           8.775     8.764   -14.654            486  HOH    0.417
  5308 O            8.301     9.129   -12.298            487  HOH   -0.834
  5309 H1           8.564     8.428   -11.702            487  HOH    0.417
  5310 H2           8.981     9.139   -12.971            487  HOH    0.417
  5311 O            8.301    12.231     3.212            488  HOH   -0.834
  5312 H1           8.292    11.297     3.420            488  HOH    0.417
  5313 H2           7.674    12.324     2.495            488  HOH    0.417
  5314 O           11.403   -24.993    -9.196            489  HOH   -0.834
  5315 H1          11.741   -25.547    -9.900            489  HOH    0.417
  5316 H2          11.655   -24.105    -9.448            489  HOH    0.417
  5317 O           11.403   -24.993    -6.094            490  HOH   -0.834
  5318 H1          10.772   -25.671    -5.853            490  HOH    0.417
  5319 H2          11.133   -24.224    -5.592            490  HOH    0.417
  5320 O           11.403   -24.993    -2.992            491  HOH   -0.834
  5321 H1          11.307   -24.414    -2.236            491  HOH    0.417
  5322 H2          11.073   -25.839    -2.690            491  HOH    0.417
  5323 O           11.403   -24.993     0.110            492  HOH   -0.834
  5324 H1          11.461   -25.861     0.510            492  HOH    0.417
  5325 H2          11.998   -25.034    -0.638            492  HOH    0.417
  5326 O           11.403   -24.993     3.212            493  HOH   -0.834
  5327 H1          11.392   -25.919     3.457            493  HOH    0.417
  5328 H2          12.142   -24.914     2.610            493  HOH    0.417
  5329 O           11.403   -21.891     0.110            494  HOH   -0.834
  5330 H1          10.808   -21.343    -0.400            494  HOH    0.417
  5331 H2          10.906   -22.119     0.895            494  HOH    0.417
  5332 O           11.403   -21.891     3.212            495  HOH   -0.834
  5333 H1          10.545   -22.136     2.865            495  HOH    0.417
  5334 H2          11.317   -21.995     4.160            495  HOH    0.417
  5335 O           11.403   -21.891     6.314            496  HOH   -0.834
  5336 H1          12.150   -21.685     6.876            496  HOH    0.417
  5337 H2          11.466   -21.266     5.592            496  HOH    0.417
  5338 O           11.403   -18.789   -15.400            497  HOH   -0.834
  5339 H1          10.812   -18.606   -14.671            497  HOH    0.417
  5340 H2          10.926   -18.494   -16.176            497  HOH    0.417
  5341 O           11.403   -18.789     0.110            498  HOH   -0.834
  5342 H1          12.000   -18.477    -0.570            498  HOH    0.417
  5343 H2          11.939   -18.826     0.902            498  HOH    0.417
  5344 O           11.403   -18.789     3.212            499  HOH   -0.834
  5345 H1          11.942   -18.726     2.424            499  HOH    0.417
  5346 H2          10.721   -18.130     3.090            499  HOH    0.417
  5347 O           11.403   -18.789     6.314            500  HOH   -0.834
  5348 H1          12.350   -18.724     6.193            500  HOH    0.417
  5349 H2          11.296   -19.081     7.219            500  HOH    0.417
  5350 O           11.403   -18.789     9.416            501  HOH   -0.834
  5351 H1          11.458   -19.416    10.138            501  HOH    0.417
  5352 H2          12.239   -18.877     8.959            501  HOH    0.417
  5353 O           11.403   -15.687   -18.502            502  HOH   -0.834
  5354 H1          11.506   -16.372   -17.842            502  HOH    0.417
  5355 H2          12.292   -15.520   -18.815            502  HOH    0.417
  5356 O           11.403   -15.687   -15.400            503  HOH   -0.834
  5357 H1          10.823   -14.929   -15.338            503  HOH    0.417
  5358 H2          12.204   -15.345   -15.797            503  HOH    0.417
  5359 O           11.403   -15.687    -2.992            504  HOH   -0.834
  5360 H1          11.619   -16.577    -2.714            504  HOH    0.417
  5361 H2          11.667   -15.135    -2.256            504  HOH    0.417
  5362 O           11.403   -15.687     6.314            505  HOH   -0.834
  5363 H1          11.457   -16.471     5.767            505  HOH    0.417
  5364 H2          11.662   -15.985     7.186            505  HOH    0.417
  5365 O           11.403   -15.687     9.416            506  HOH   -0.834
  5366 H1          11.860   -16.242    10.048            506  HOH    0.417
  5367 H2          11.026   -14.983     9.944            506  HOH    0.417
  5368 O           11.403   -15.687    12.518            507  HOH   -0.834
  5369 H1          10.925   -16.347    12.016            507  HOH    0.417
  5370 H2          11.124   -14.852    12.144            507  HOH    0.417
  5371 O           11.403   -12.585   -21.604            508  HOH   -0.834
  5372 H1          11.218   -13.491   -21.850            508  HOH    0.417
  5373 H2          12.317   -12.451   -21.854            508  HOH    0.417
  5374 O           11.403   -12.585   -18.502            509  HOH   -0.834
  5375 H1          10.749   -13.186   -18.859            509  HOH    0.417
  5376 H2          11.973   -12.383   -19.244            509  HOH    0.417
  5377 O           11.403   -12.585   -15.400            510  HOH   -0.834
  5378 H1          10.793   -13.213   -15.787            510  HOH    0.417
  5379 H2          11.732   -12.080   -16.144            510  HOH    0.417
  5380 O           11.403   -12.585     3.212            511  HOH   -0.834
  5381 H1          11.629   -12.635     4.141            511  HOH    0.417
  5382 H2          10.751   -13.275     3.087            511  HOH    0.417
  5383 O           11.403   -12.585     6.314            512  HOH   -0.834
  5384 H1          11.637   -11.977     7.015            512  HOH    0.417
  5385 H2          10.453   -12.678     6.385            512  HOH    0.417
  5386 O           11.403   -12.585     9.416            513  HOH   -0.834
  5387 H1          12.035   -12.943    10.040            513  HOH    0.417
  5388 H2          10.586   -12.526     9.910            513  HOH    0.417
  5389 O           11.403   -12.585    12.518            514  HOH   -0.834
  5390 H1          11.863   -13.384    12.776            514  HOH    0.417
  5391 H2          10.555   -12.644    12.958            514  HOH    0.417
  5392 O           11.403   -12.585    15.620            515  HOH   -0.834
  5393 H1          11.211   -13.522    15.591            515  HOH    0.417
  5394 H2          12.339   -12.526    15.430            515  HOH    0.417
  5395 O           11.403    -9.483   -21.604            516  HOH   -0.834
  5396 H1          10.467    -9.667   -21.534            516  HOH    0.417
  5397 H2          11.648    -9.148   -20.742            516  HOH    0.417
  5398 O           11.403    -9.483   -18.502            517  HOH   -0.834
  5399 H1          10.760    -9.609   -19.200            517  HOH    0.417
  5400 H2          11.982    -8.796   -18.831            517  HOH    0.417
  5401 O           11.403    -9.483   -15.400            518  HOH   -0.834
  5402 H1          10.723   -10.061   -15.055            518  HOH    0.417
  5403 H2          11.848    -9.146   -14.623            518  HOH    0.417
  5404 O           11.403    -9.483     6.314            519  HOH   -0.834
  5405 H1          10.884   -10.061     6.873            519  HOH    0.417
  5406 H2          11.097    -9.668     5.426            519  HOH    0.417
  5407 O           11.403    -9.483     9.416            520  HOH   -0.834
  5408 H1          12.176    -9.365     8.865            520  HOH    0.417
  5409 H2          11.609    -9.011    10.223            520  HOH    0.417
  5410 O           11.403    -9.483    12.518            521  HOH   -0.834
  5411 H1          12.135   -10.068    12.714            521  HOH    0.417
  5412 H2          11.429    -8.826    13.214            521  HOH    0.417
  5413 O           11.403    -9.483    15.620            522  HOH   -0.834
  5414 H1          12.281    -9.149    15.438            522  HOH    0.417
  5415 H2          10.820    -8.755    15.407            522  HOH    0.417
  5416 O           11.403    -6.381   -21.604            523  HOH   -0.834
  5417 H1          12.182    -6.644   -21.114            523  HOH    0.417
  5418 H2          11.458    -5.427   -21.649            523  HOH    0.417
  5419 O           11.403    -6.381   -18.502            524  HOH   -0.834
  5420 H1          12.140    -6.086   -17.968            524  HOH    0.417
  5421 H2          11.809    -6.839   -19.238            524  HOH    0.417
  5422 O           11.403    -6.381     6.314            525  HOH   -0.834
  5423 H1          12.063    -6.465     7.002            525  HOH    0.417
  5424 H2          10.800    -7.108     6.469            525  HOH    0.417
  5425 O           11.403    -6.381     9.416            526  HOH   -0.834
  5426 H1          11.021    -6.942    10.091            526  HOH    0.417
  5427 H2          10.888    -5.575     9.454            526  HOH    0.417
  5428 O           11.403    -6.381    15.620            527  HOH   -0.834
  5429 H1          11.018    -5.531    15.835            527  HOH    0.417
  5430 H2          11.130    -6.547    14.718            527  HOH    0.417
  5431 O           11.403    -3.279   -21.604            528  HOH   -0.834
  5432 H1          12.016    -3.921   -21.247            528  HOH    0.417
  5433 H2          10.936    -3.751   -22.294            528  HOH    0.417
  5434 O           11.403    -3.279   -18.502            529  HOH   -0.834
  5435 H1          12.028    -2.660   -18.880            529  HOH    0.417
  5436 H2          11.909    -3.764   -17.851            529  HOH    0.417
  5437 O           11.403    -3.279    -2.992            530  HOH   -0.834
  5438 H1          11.418    -4.090    -3.500            530  HOH    0.417
  5439 H2          11.718    -3.533    -2.125            530  HOH    0.417
  5440 O           11.403    -0.177   -21.604            531  HOH   -0.834
  5441 H1          11.944     0.435   -22.103            531  HOH    0.417
  5442 H2          10.556    -0.165   -22.049            531  HOH    0.417
  5443 O           11.403    -0.177   -18.502            532  HOH   -0.834
  5444 H1          11.419    -0.862   -17.834            532  HOH    0.417
  5445 H2          10.565     0.266   -18.372            532  HOH    0.417
  5446 O           11.403    -0.177   -15.400            533  HOH   -0.834
  5447 H1          11.912     0.590   -15.136            533  HOH    0.417
  5448 H2          10.727    -0.260   -14.728            533  HOH    0.417
  5449 O           11.403     2.925   -18.502            534  HOH   -0.834
  5450 H1          11.253     2.051   -18.143            534  HOH    0.417
  5451 H2          12.283     2.883   -18.876            534  HOH    0.417
  5452 O           11.403     2.925   -15.400            535  HOH   -0.834
  5453 H1          12.079     2.274   -15.214            535  HOH    0.417
  5454 H2          11.638     3.276   -16.259            535  HOH    0.417
  5455 O           11.403     2.925   -12.298            536  HOH   -0.834
  5456 H1          11.754     2.270   -11.695            536  HOH    0.417
  5457 H2          11.790     2.703   -13.145            536  HOH    0.417
  5458 O           11.403     6.027   -15.400            537  HOH   -0.834
  5459 H1          11.956     6.750   -15.104            537  HOH    0.417
  5460 H2          11.620     5.923   -16.327            537  HOH    0.417
  5461 O           11.403     6.027   -12.298            538  HOH   -0.834
  5462 H1          10.697     6.130   -11.661            538  HOH    0.417
  5463 H2          11.944     6.809   -12.185            538  HOH    0.417
  5464 O           11.403     6.027     0.110            539  HOH   -0.834
  5465 H1          10.603     6.057    -0.414            539  HOH    0.417
  5466 H2          11.398     5.156     0.506            539  HOH    0.417
  5467 O           11.403     9.129   -12.298            540  HOH   -0.834
  5468 H1          11.417     8.937   -13.236            540  HOH    0.417
  5469 H2          11.623    10.059   -12.241            540  HOH    0.417
  5470 O           11.403    12.231    -9.196            541  HOH   -0.834
  5471 H1          11.532    12.233    -8.248            541  HOH    0.417
  5472 H2          10.490    12.491    -9.315            541  HOH    0.417
  5473 O           14.505   -24.993    -6.094            542  HOH   -0.834
  5474 H1          14.689   -24.279    -5.485            542  HOH    0.417
  5475 H2          15.348   -25.431    -6.212            542  HOH    0.417
  5476 O           14.505   -24.993    -2.992            543  HOH   -0.834
  5477 H1          14.125   -24.160    -3.270            543  HOH    0.417
  5478 H2          13.900   -25.656    -3.324            543  HOH    0.417
  5479 O           14.505   -24.993     0.110            544  HOH   -0.834
  5480 H1          14.541   -25.334    -0.783            544  HOH    0.417
  5481 H2          13.988   -24.191     0.040            544  HOH    0.417
  5482 O           14.505   -21.891   -12.298            545  HOH   -0.834
  5483 H1          13.955   -21.298   -11.788            545  HOH    0.417
  5484 H2          15.059   -21.314   -12.823            545  HOH    0.417
  5485 O           14.505   -21.891     0.110            546  HOH   -0.834
  5486 H1          14.124   -22.638     0.571            546  HOH    0.417
  5487 H2          15.018   -22.282    -0.597            546  HOH    0.417
  5488 O           14.505   -21.891     3.212            547  HOH   -0.834
  5489 H1          14.954   -22.018     2.377            547  HOH    0.417
  5490 H2          13.577   -21.994     3.003            547  HOH    0.417
  5491 O           14.505   -21.891     6.314            548  HOH   -0.834
  5492 H1          14.082   -22.221     7.107            548  HOH    0.417
  5493 H2          15.439   -21.894     6.522            548  HOH    0.417
  5494 O           14.505   -18.789   -15.400            549  HOH   -0.834
  5495 H1          13.577   -18.710   -15.182            549  HOH    0.417
  5496 H2          14.952   -18.787   -14.554            549  HOH    0.417
  5497 O           14.505   -18.789   -12.298            550  HOH   -0.834
  5498 H1          13.663   -19.212   -12.132            550  HOH    0.417
  5499 H2          14.529   -18.666   -13.247            550  HOH    0.417
  5500 O           14.505   -18.789     3.212            551  HOH   -0.834
  5501 H1          14.278   -18.132     3.870            551  HOH    0.417
  5502 H2          14.751   -18.281     2.440            551  HOH    0.417
  5503 O           14.505   -18.789     6.314            552  HOH   -0.834
  5504 H1          14.098   -18.960     7.163            552  HOH    0.417
  5505 H2          14.169   -19.480     5.743            552  HOH    0.417
  5506 O           14.505   -18.789     9.416            553  HOH   -0.834
  5507 H1          14.249   -18.703    10.334            553  HOH    0.417
  5508 H2          15.273   -18.225     9.327            553  HOH    0.417
  5509 O           14.505   -15.687   -18.502            554  HOH   -0.834
  5510 H1          15.131   -16.075   -17.892            554  HOH    0.417
  5511 H2          14.500   -16.283   -19.252            554  HOH    0.417
  5512 O           14.505   -15.687   -15.400            555  HOH   -0.834
  5513 H1          14.223   -16.590   -15.257            555  HOH    0.417
  5514 H2          13.713   -15.230   -15.681            555  HOH    0.417
  5515 O           14.505   -15.687    -9.196            556  HOH   -0.834
  5516 H1          13.781   -16.235    -9.499            556  HOH    0.417
  5517 H2          15.291   -16.195    -9.397            556  HOH    0.417
  5518 O           14.505   -15.687     3.212            557  HOH   -0.834
  5519 H1          14.935   -16.196     2.525            557  HOH    0.417
  5520 H2          14.866   -16.034     4.028            557  HOH    0.417
  5521 O           14.505   -15.687     6.314            558  HOH   -0.834
  5522 H1          15.442   -15.666     6.511            558  HOH    0.417
  5523 H2          14.092   -15.265     7.067            558  HOH    0.417
  5524 O           14.505   -15.687     9.416            559  HOH   -0.834
  5525 H1          13.757   -15.401     9.940            559  HOH    0.417
  5526 H2          14.888   -14.876     9.082            559  HOH    0.417
  5527 O           14.505   -15.687    12.518            560  HOH   -0.834
  5528 H1          13.605   -15.621    12.838            560  HOH    0.417
  5529 H2          14.418   -16.002    11.619            560  HOH    0.417
  5530 O           14.505   -12.585   -18.502            561  HOH   -0.834
  5531 H1          14.377   -13.206   -19.219            561  HOH    0.417
  5532 H2          15.134   -11.950   -18.845            561  HOH    0.417
  5533 O           14.505   -12.585   -15.400            562  HOH   -0.834
  5534 H1          14.895   -11.712   -15.429            562  HOH    0.417
  5535 H2          15.072   -13.082   -14.810            562  HOH    0.417
  5536 O           14.505   -12.585     3.212            563  HOH   -0.834
  5537 H1          15.071   -13.258     2.835            563  HOH    0.417
  5538 H2          14.411   -11.934     2.517            563  HOH    0.417
  5539 O           14.505   -12.585     6.314            564  HOH   -0.834
  5540 H1          14.312   -11.751     5.887            564  HOH    0.417
  5541 H2          14.162   -12.486     7.202            564  HOH    0.417
  5542 O           14.505   -12.585     9.416            565  HOH   -0.834
  5543 H1          15.205   -11.933     9.434            565  HOH    0.417
  5544 H2          14.004   -12.422    10.215            565  HOH    0.417
  5545 O           14.505   -12.585    12.518            566  HOH   -0.834
  5546 H1          14.434   -12.591    13.473            566  HOH    0.417
  5547 H2          14.171   -11.727    12.258            566  HOH    0.417
  5548 O           14.505    -9.483   -21.604            567  HOH   -0.834
  5549 H1          14.312    -8.764   -22.206            567  HOH    0.417
  5550 H2          15.418    -9.346   -21.352            567  HOH    0.417
  5551 O           14.505    -9.483   -18.502            568  HOH   -0.834
  5552 H1          14.877    -9.043   -19.266            568  HOH    0.417
  5553 H2          13.567    -9.302   -18.554            568  HOH    0.417
  5554 O           14.505    -9.483   -15.400            569  HOH   -0.834
  5555 H1          14.436   -10.013   -14.606            569  HOH    0.417
  5556 H2          15.410    -9.600   -15.689            569  HOH    0.417
  5557 O           14.505    -9.483    -2.992            570  HOH   -0.834
  5558 H1          14.258    -8.584    -2.777            570  HOH    0.417
  5559 H2          14.057   -10.018    -2.337            570  HOH    0.417
  5560 O           14.505    -9.483     9.416            571  HOH   -0.834
  5561 H1          15.237    -9.525    10.032            571  HOH    0.417
  5562 H2          14.838    -9.896     8.620            571  HOH    0.417
  5563 O           14.505    -9.483    12.518            572  HOH   -0.834
  5564 H1          15.074    -9.304    13.267            572  HOH    0.417
  5565 H2          14.826   -10.313    12.166            572  HOH    0.417
  5566 O           14.505    -9.483    15.620            573  HOH   -0.834
  5567 H1          14.471   -10.307    16.106            573  HOH    0.417
  5568 H2          15.156    -8.957    16.085            573  HOH    0.417
  5569 O           14.505    -6.381   -21.604            574  HOH   -0.834
  5570 H1          14.743    -5.753   -22.286            574  HOH    0.417
  5571 H2          14.624    -7.237   -22.015            574  HOH    0.417
  5572 O           14.505    -6.381   -18.502            575  HOH   -0.834
  5573 H1          15.265    -6.500   -19.072            575  HOH    0.417
  5574 H2          14.670    -6.960   -17.759            575  HOH    0.417
  5575 O           14.505    -6.381     3.212            576  HOH   -0.834
  5576 H1          13.945    -7.072     3.565            576  HOH    0.417
  5577 H2          15.317    -6.828     2.974            576  HOH    0.417
  5578 O           14.505    -6.381    12.518            577  HOH   -0.834
  5579 H1          13.758    -5.785    12.480            577  HOH    0.417
  5580 H2          14.275    -7.011    13.201            577  HOH    0.417
  5581 O           14.505    -6.381    15.620            578  HOH   -0.834
  5582 H1          14.877    -6.736    14.813            578  HOH    0.417
  5583 H2          14.019    -5.606    15.340            578  HOH    0.417
  5584 O           14.505    -3.279   -21.604            579  HOH   -0.834
  5585 H1          15.327    -3.465   -22.057            579  HOH    0.417
  5586 H2          14.390    -4.016   -21.005            579  HOH    0.417
  5587 O           14.505    -3.279   -18.502            580  HOH   -0.834
  5588 H1          14.693    -2.384   -18.786            580  HOH    0.417
  5589 H2          14.031    -3.175   -17.678            580  HOH    0.417
  5590 O           14.505    -3.279   -15.400            581  HOH   -0.834
  5591 H1          15.014    -3.729   -14.727            581  HOH    0.417
  5592 H2          13.900    -2.722   -14.911            581  HOH    0.417
  5593 O           14.505    -3.279     9.416            582  HOH   -0.834
  5594 H1          14.478    -3.893     8.683            582  HOH    0.417
  5595 H2          13.617    -3.293     9.773            582  HOH    0.417
  5596 O           14.505    -0.177   -18.502            583  HOH   -0.834
  5597 H1          13.686    -0.489   -18.119            583  HOH    0.417
  5598 H2          14.966     0.243   -17.776            583  HOH    0.417
  5599 O           14.505    -0.177   -15.400            584  HOH   -0.834
  5600 H1          14.683     0.209   -16.258            584  HOH    0.417
  5601 H2          13.777    -0.779   -15.554            584  HOH    0.417
  5602 O           14.505    -0.177   -12.298            585  HOH   -0.834
  5603 H1          14.292     0.072   -11.399            585  HOH    0.417
  5604 H2          13.790    -0.754   -12.564            585  HOH    0.417
  5605 O           14.505     2.925   -18.502            586  HOH   -0.834
  5606 H1          14.237     3.785   -18.826            586  HOH    0.417
  5607 H2          15.220     3.110   -17.893            586  HOH    0.417
  5608 O           14.505     2.925   -15.400            587  HOH   -0.834
  5609 H1          15.094     2.875   -14.648            587  HOH    0.417
  5610 H2          14.640     3.805   -15.752            587  HOH    0.417
  5611 O           14.505     6.027   -15.400            588  HOH   -0.834
  5612 H1          14.021     5.295   -15.018            588  HOH    0.417
  5613 H2          14.935     6.446   -14.655            588  HOH    0.417
  5614 O           14.505     9.129   -12.298            589  HOH   -0.834
  5615 H1          13.832     8.466   -12.146            589  HOH    0.417
  5616 H2          15.118     9.021   -11.571            589  HOH    0.417
  5617 O           17.607   -21.891    -9.196            590  HOH   -0.834
  5618 H1          16.823   -21.483    -8.830            590  HOH    0.417
  5619 H2          17.305   -22.737    -9.528            590  HOH    0.417
  5620 O           17.607   -21.891    -6.094            591  HOH   -0.834
  5621 H1          17.359   -21.250    -5.429            591  HOH    0.417
  5622 H2          17.583   -22.732    -5.638            591  HOH    0.417
  5623 O           17.607   -21.891    -2.992            592  HOH   -0.834
  5624 H1          17.040   -22.491    -2.508            592  HOH    0.417
  5625 H2          17.012   -21.231    -3.347            592  HOH    0.417
  5626 O           17.607   -21.891     0.110            593  HOH   -0.834
  5627 H1          17.917   -22.796     0.147            593  HOH    0.417
  5628 H2          17.226   -21.804    -0.763            593  HOH    0.417
  5629 O           17.607   -21.891     3.212            594  HOH   -0.834
  5630 H1          17.703   -22.799     2.923            594  HOH    0.417
  5631 H2          18.490   -21.526     3.152            594  HOH    0.417
  5632 O           17.607   -18.789   -15.400            595  HOH   -0.834
  5633 H1          17.107   -19.297   -16.040            595  HOH    0.417
  5634 H2          17.497   -17.880   -15.677            595  HOH    0.417
  5635 O           17.607   -18.789   -12.298            596  HOH   -0.834
  5636 H1          17.090   -18.025   -12.550            596  HOH    0.417
  5637 H2          17.680   -19.304   -13.101            596  HOH    0.417
  5638 O           17.607   -18.789    -9.196            597  HOH   -0.834
  5639 H1          17.708   -18.451    -8.306            597  HOH    0.417
  5640 H2          16.685   -19.039    -9.255            597  HOH    0.417
  5641 O           17.607   -18.789    -2.992            598  HOH   -0.834
  5642 H1          18.458   -18.638    -2.581            598  HOH    0.417
  5643 H2          17.816   -19.037    -3.893            598  HOH    0.417
  5644 O           17.607   -18.789     0.110            599  HOH   -0.834
  5645 H1          18.563   -18.826     0.102            599  HOH    0.417
  5646 H2          17.340   -19.587     0.567            599  HOH    0.417
  5647 O           17.607   -18.789     3.212            600  HOH   -0.834
  5648 H1          18.377   -18.820     2.644            600  HOH    0.417
  5649 H2          16.894   -18.517     2.635            600  HOH    0.417
  5650 O           17.607   -18.789     6.314            601  HOH   -0.834
  5651 H1          17.390   -19.719     6.255            601  HOH    0.417
  5652 H2          16.784   -18.340     6.126            601  HOH    0.417
  5653 O           17.607   -18.789     9.416            602  HOH   -0.834
  5654 H1          16.897   -18.170     9.583            602  HOH    0.417
  5655 H2          18.197   -18.683    10.163            602  HOH    0.417
  5656 O           17.607   -15.687   -15.400            603  HOH   -0.834
  5657 H1          18.032   -15.818   -14.553            603  HOH    0.417
  5658 H2          17.775   -16.498   -15.881            603  HOH    0.417
  5659 O           17.607   -15.687     3.212            604  HOH   -0.834
  5660 H1          17.521   -16.553     3.611            604  HOH    0.417
  5661 H2          16.832   -15.209     3.507            604  HOH    0.417
  5662 O           17.607   -15.687     6.314            605  HOH   -0.834
  5663 H1          18.112   -16.095     5.611            605  HOH    0.417
  5664 H2          16.693   -15.832     6.069            605  HOH    0.417
  5665 O           17.607   -15.687     9.416            606  HOH   -0.834
  5666 H1          17.380   -16.316    10.101            606  HOH    0.417
  5667 H2          16.993   -15.872     8.706            606  HOH    0.417
  5668 O           17.607   -12.585   -18.502            607  HOH   -0.834
  5669 H1          16.896   -13.081   -18.907            607  HOH    0.417
  5670 H2          18.293   -13.234   -18.346            607  HOH    0.417
  5671 O           17.607   -12.585   -15.400            608  HOH   -0.834
  5672 H1          16.994   -11.853   -15.465            608  HOH    0.417
  5673 H2          17.614   -12.971   -16.276            608  HOH    0.417
  5674 O           17.607   -12.585    -6.094            609  HOH   -0.834
  5675 H1          16.859   -11.997    -5.989            609  HOH    0.417
  5676 H2          17.219   -13.430    -6.319            609  HOH    0.417
  5677 O           17.607   -12.585     6.314            610  HOH   -0.834
  5678 H1          17.313   -13.276     5.721            610  HOH    0.417
  5679 H2          18.455   -12.891     6.636            610  HOH    0.417
  5680 O           17.607   -12.585     9.416            611  HOH   -0.834
  5681 H1          16.882   -12.319     8.852            611  HOH    0.417
  5682 H2          17.887   -11.776     9.844            611  HOH    0.417
  5683 O           17.607   -12.585    12.518            612  HOH   -0.834
  5684 H1          17.488   -11.826    11.948            612  HOH    0.417
  5685 H2          18.494   -12.890    12.329            612  HOH    0.417
  5686 O           17.607    -9.483   -18.502            613  HOH   -0.834
  5687 H1          16.808   -10.007   -18.540            613  HOH    0.417
  5688 H2          17.618    -9.124   -17.615            613  HOH    0.417
  5689 O           17.607    -9.483   -15.400            614  HOH   -0.834
  5690 H1          18.432    -9.313   -15.855            614  HOH    0.417
  5691 H2          17.196   -10.185   -15.903            614  HOH    0.417
  5692 O           17.607    -9.483   -12.298            615  HOH   -0.834
  5693 H1          17.533    -8.967   -13.101            615  HOH    0.417
  5694 H2          17.771   -10.376   -12.601            615  HOH    0.417
  5695 O           17.607    -9.483     9.416            616  HOH   -0.834
  5696 H1          17.963   -10.358     9.260            616  HOH    0.417
  5697 H2          18.246    -8.890     9.021            616  HOH    0.417
  5698 O           17.607    -9.483    12.518            617  HOH   -0.834
  5699 H1          17.003    -8.848    12.135            617  HOH    0.417
  5700 H2          17.172    -9.775    13.319            617  HOH    0.417
  5701 O           17.607    -6.381   -18.502            618  HOH   -0.834
  5702 H1          17.768    -5.691   -17.859            618  HOH    0.417
  5703 H2          18.479    -6.630   -18.810            618  HOH    0.417
  5704 O           17.607    -6.381   -15.400            619  HOH   -0.834
  5705 H1          17.211    -6.649   -14.571            619  HOH    0.417
  5706 H2          17.368    -7.074   -16.016            619  HOH    0.417
  5707 O           17.607    -6.381   -12.298            620  HOH   -0.834
  5708 H1          18.156    -5.610   -12.155            620  HOH    0.417
  5709 H2          16.717    -6.079   -12.119            620  HOH    0.417
  5710 O           17.607    -6.381    -2.992            621  HOH   -0.834
  5711 H1          17.699    -7.205    -2.514            621  HOH    0.417
  5712 H2          17.281    -6.638    -3.854            621  HOH    0.417
  5713 O           17.607    -3.279   -18.502            622  HOH   -0.834
  5714 H1          17.213    -4.072   -18.866            622  HOH    0.417
  5715 H2          18.174    -3.594   -17.798            622  HOH    0.417
  5716 O           17.607    -3.279   -15.400            623  HOH   -0.834
  5717 H1          16.931    -2.634   -15.196            623  HOH    0.417
  5718 H2          17.663    -3.825   -14.616            623  HOH    0.417
  5719 O           17.607    -3.279     0.110            624  HOH   -0.834
  5720 H1          18.212    -2.843     0.710            624  HOH    0.417
  5721 H2          17.169    -2.564    -0.351            624  HOH    0.417
  5722 O           17.607    -0.177   -18.502            625  HOH   -0.834
  5723 H1          17.879     0.399   -17.788            625  HOH    0.417
  5724 H2          18.237    -0.898   -18.483            625  HOH    0.417
  5725 O           17.607    -0.177   -15.400            626  HOH   -0.834
  5726 H1          17.418    -0.534   -14.533            626  HOH    0.417
  5727 H2          17.718     0.762   -15.254            626  HOH    0.417
  5728 O           17.607    -0.177   -12.298            627  HOH   -0.834
  5729 H1          17.995    -0.865   -11.758            627  HOH    0.417
  5730 H2          16.721    -0.487   -12.482            627  HOH    0.417
  5731 O           17.607    -0.177     3.212            628  HOH   -0.834
  5732 H1          17.397    -0.847     3.862            628  HOH    0.417
  5733 H2          18.530    -0.324     3.004            628  HOH    0.417
  5734 O           17.607     2.925   -15.400            629  HOH   -0.834
  5735 H1          16.801     2.995   -14.889            629  HOH    0.417
  5736 H2          18.308     2.996   -14.753            629  HOH    0.417
  5737 O           17.607     2.925   -12.298            630  HOH   -0.834
  5738 H1          16.994     3.603   -12.015            630  HOH    0.417
  5739 H2          18.471     3.324   -12.193            630  HOH    0.417
  5740 O           17.607     2.925    -2.992            631  HOH   -0.834
  5741 H1          17.753     3.869    -3.050            631  HOH    0.417
  5742 H2          18.074     2.659    -2.200            631  HOH    0.417
  5743 O           17.607     6.027   -15.400            632  HOH   -0.834
  5744 H1          17.100     5.233   -15.570            632  HOH    0.417
  5745 H2          18.520     5.740   -15.430            632  HOH    0.417
  5746 O           17.607     6.027   -12.298            633  HOH   -0.834
  5747 H1          17.122     6.836   -12.460            633  HOH    0.417
  5748 H2          17.303     5.733   -11.440            633  HOH    0.417
  5749 O           17.607     6.027    -9.196            634  HOH   -0.834
  5750 H1          17.888     5.941   -10.107            634  HOH    0.417
  5751 H2          18.372     6.379    -8.741            634  HOH    0.417
  5752 O           20.709   -21.891    -2.992            635  HOH   -0.834
  5753 H1          20.200   -22.684    -3.161            635  HOH    0.417
  5754 H2          21.338   -22.148    -2.317            635  HOH    0.417
  5755 O           20.709   -18.789   -12.298            636  HOH   -0.834
  5756 H1          20.110   -19.173   -12.938            636  HOH    0.417
  5757 H2          20.802   -17.877   -12.573            636  HOH    0.417
  5758 O           20.709   -18.789    -9.196            637  HOH   -0.834
  5759 H1          20.322   -18.268    -9.899            637  HOH    0.417
  5760 H2          20.343   -19.665    -9.317            637  HOH    0.417
  5761 O           20.709   -18.789    -6.094            638  HOH   -0.834
  5762 H1          21.406   -18.871    -6.745            638  HOH    0.417
  5763 H2          21.071   -18.207    -5.426            638  HOH    0.417
  5764 O           20.709   -18.789    -2.992            639  HOH   -0.834
  5765 H1          20.134   -19.123    -2.304            639  HOH    0.417
  5766 H2          21.392   -19.455    -3.078            639  HOH    0.417
  5767 O           20.709   -18.789     0.110            640  HOH   -0.834
  5768 H1          21.009   -18.220     0.819            640  HOH    0.417
  5769 H2          20.535   -19.629     0.535            640  HOH    0.417
  5770 O           20.709   -18.789     3.212            641  HOH   -0.834
  5771 H1          21.212   -18.032     3.512            641  HOH    0.417
  5772 H2          21.316   -19.275     2.654            641  HOH    0.417
  5773 O           20.709   -18.789     6.314            642  HOH   -0.834
  5774 H1          20.085   -18.281     6.832            642  HOH    0.417
  5775 H2          20.658   -18.411     5.437            642  HOH    0.417
  5776 O           20.709   -15.687   -15.400            643  HOH   -0.834
  5777 H1          20.231   -15.870   -14.592            643  HOH    0.417
  5778 H2          20.137   -16.012   -16.095            643  HOH    0.417
  5779 O           20.709   -15.687   -12.298            644  HOH   -0.834
  5780 H1          19.994   -15.226   -12.736            644  HOH    0.417
  5781 H2          20.579   -15.502   -11.368            644  HOH    0.417
  5782 O           20.709   -15.687    -9.196            645  HOH   -0.834
  5783 H1          20.117   -16.318    -8.787            645  HOH    0.417
  5784 H2          21.574   -16.091    -9.128            645  HOH    0.417
  5785 O           20.709   -15.687    -6.094            646  HOH   -0.834
  5786 H1          20.914   -16.617    -6.001            646  HOH    0.417
  5787 H2          20.608   -15.373    -5.196            646  HOH    0.417
  5788 O           20.709   -15.687    -2.992            647  HOH   -0.834
  5789 H1          20.985   -16.503    -2.574            647  HOH    0.417
  5790 H2          19.937   -15.413    -2.497            647  HOH    0.417
  5791 O           20.709   -15.687     6.314            648  HOH   -0.834
  5792 H1          21.386   -16.048     6.886            648  HOH    0.417
  5793 H2          19.885   -15.971     6.709            648  HOH    0.417
  5794 O           20.709   -15.687     9.416            649  HOH   -0.834
  5795 H1          20.072   -15.921     8.742            649  HOH    0.417
  5796 H2          21.500   -16.171     9.177            649  HOH    0.417
  5797 O           20.709   -12.585   -15.400            650  HOH   -0.834
  5798 H1          20.912   -13.243   -16.065            650  HOH    0.417
  5799 H2          20.040   -12.034   -15.805            650  HOH    0.417
  5800 O           20.709   -12.585   -12.298            651  HOH   -0.834
  5801 H1          21.509   -12.829   -12.764            651  HOH    0.417
  5802 H2          20.012   -12.698   -12.943            651  HOH    0.417
  5803 O           20.709   -12.585    -9.196            652  HOH   -0.834
  5804 H1          21.350   -12.299    -8.545            652  HOH    0.417
  5805 H2          19.862   -12.474    -8.765            652  HOH    0.417
  5806 O           20.709   -12.585     6.314            653  HOH   -0.834
  5807 H1          21.364   -12.315     6.958            653  HOH    0.417
  5808 H2          20.080   -13.104     6.815            653  HOH    0.417
  5809 O           20.709   -12.585     9.416            654  HOH   -0.834
  5810 H1          20.130   -12.578     8.655            654  HOH    0.417
  5811 H2          20.458   -11.809     9.917            654  HOH    0.417
  5812 O           20.709    -9.483   -15.400            655  HOH   -0.834
  5813 H1          20.795    -8.768   -16.031            655  HOH    0.417
  5814 H2          20.140    -9.132   -14.716            655  HOH    0.417
  5815 O           20.709    -9.483   -12.298            656  HOH   -0.834
  5816 H1          21.151   -10.167   -11.796            656  HOH    0.417
  5817 H2          20.137    -9.958   -12.900            656  HOH    0.417
  5818 O           20.709    -9.483    -9.196            657  HOH   -0.834
  5819 H1          20.462    -9.839    -8.343            657  HOH    0.417
  5820 H2          20.178    -8.693    -9.290            657  HOH    0.417
  5821 O           20.709    -6.381   -18.502            658  HOH   -0.834
  5822 H1          20.094    -6.164   -19.203            658  HOH    0.417
  5823 H2          20.154    -6.577   -17.748            658  HOH    0.417
  5824 O           20.709    -6.381   -15.400            659  HOH   -0.834
  5825 H1          19.941    -6.858   -15.087            659  HOH    0.417
  5826 H2          20.985    -6.858   -16.183            659  HOH    0.417
  5827 O           20.709    -6.381   -12.298            660  HOH   -0.834
  5828 H1          21.647    -6.216   -12.205            660  HOH    0.417
  5829 H2          20.592    -6.582   -13.226            660  HOH    0.417
  5830 O           20.709    -6.381    -9.196            661  HOH   -0.834
  5831 H1          21.034    -5.540    -9.517            661  HOH    0.417
  5832 H2          21.414    -6.714    -8.641            661  HOH    0.417
  5833 O           20.709    -3.279   -15.400            662  HOH   -0.834
  5834 H1          21.215    -3.058   -16.182            662  HOH    0.417
  5835 H2          20.903    -4.203   -15.242            662  HOH    0.417
  5836 O           20.709    -3.279   -12.298            663  HOH   -0.834
  5837 H1          20.193    -3.808   -12.905            663  HOH    0.417
  5838 H2          21.244    -3.914   -11.821            663  HOH    0.417
  5839 O           20.709    -0.177   -15.400            664  HOH   -0.834
  5840 H1          20.191     0.370   -15.991            664  HOH    0.417
  5841 H2          21.100    -0.841   -15.968            664  HOH    0.417
  5842 O           20.709    -0.177   -12.298            665  HOH   -0.834
  5843 H1          20.249    -0.679   -12.971            665  HOH    0.417
  5844 H2          20.283    -0.429   -11.479            665  HOH    0.417
  5845 O           20.709    -0.177    -9.196            666  HOH   -0.834
  5846 H1          20.497     0.028   -10.107            666  HOH    0.417
  5847 H2          21.408    -0.828    -9.253            666  HOH    0.417
  5848 O           20.709     2.925   -15.400            667  HOH   -0.834
  5849 H1          20.030     3.028   -16.067            667  HOH    0.417
  5850 H2          21.523     3.155   -15.849            667  HOH    0.417
  5851 O           20.709     2.925   -12.298            668  HOH   -0.834
  5852 H1          21.246     2.345   -12.838            668  HOH    0.417
  5853 H2          20.494     3.658   -12.875            668  HOH    0.417
  5854 O           20.709     2.925    -9.196            669  HOH   -0.834
  5855 H1          21.102     3.228    -8.378            669  HOH    0.417
  5856 H2          21.309     2.251    -9.515            669  HOH    0.417
  5857 O           20.709     6.027   -12.298            670  HOH   -0.834
  5858 H1          20.101     6.455   -12.900            670  HOH    0.417
  5859 H2          20.276     6.073   -11.446            670  HOH    0.417
  5860 O           20.709     6.027    -9.196            671  HOH   -0.834
  5861 H1          21.014     5.355    -9.805            671  HOH    0.417
  5862 H2          20.909     6.855    -9.634            671  HOH    0.417
  5863 O           20.709     6.027    -6.094            672  HOH   -0.834
  5864 H1          21.388     6.658    -6.334            672  HOH    0.417
  5865 H2          19.887     6.469    -6.305            672  HOH    0.417
  5866 O           20.709     9.129    -2.992            673  HOH   -0.834
  5867 H1          20.030     9.734    -2.693            673  HOH    0.417
  5868 H2          21.473     9.685    -3.149            673  HOH    0.417
  5869 O           23.811   -18.789    -2.992            674  HOH   -0.834
  5870 H1          24.733   -19.043    -3.029            674  HOH    0.417
  5871 H2          23.721   -18.115    -3.665            674  HOH    0.417
  5872 O           23.811   -15.687    -9.196            675  HOH   -0.834
  5873 H1          23.257   -15.092    -9.700            675  HOH    0.417
  5874 H2          23.245   -16.433    -8.998            675  HOH    0.417
  5875 O           23.811   -15.687    -6.094            676  HOH   -0.834
  5876 H1          24.578   -15.127    -6.210            676  HOH    0.417
  5877 H2          24.139   -16.575    -6.238            676  HOH    0.417
  5878 O           23.811   -15.687    -2.992            677  HOH   -0.834
  5879 H1          24.003   -16.110    -2.155            677  HOH    0.417
  5880 H2          23.241   -14.953    -2.764            677  HOH    0.417
  5881 O           23.811   -15.687     0.110            678  HOH   -0.834
  5882 H1          23.224   -14.932     0.089            678  HOH    0.417
  5883 H2          24.289   -15.596     0.934            678  HOH    0.417
  5884 O           23.811   -12.585   -12.298            679  HOH   -0.834
  5885 H1          23.273   -12.824   -11.544            679  HOH    0.417
  5886 H2          23.679   -13.298   -12.923            679  HOH    0.417
  5887 O           23.811   -12.585    -9.196            680  HOH   -0.834
  5888 H1          23.481   -13.286    -9.757            680  HOH    0.417
  5889 H2          23.104   -12.424    -8.572            680  HOH    0.417
  5890 O           23.811   -12.585    -6.094            681  HOH   -0.834
  5891 H1          23.871   -13.467    -6.460            681  HOH    0.417
  5892 H2          24.420   -12.066    -6.619            681  HOH    0.417
  5893 O           23.811   -12.585     0.110            682  HOH   -0.834
  5894 H1          24.524   -12.996    -0.379            682  HOH    0.417
  5895 H2          23.022   -12.804    -0.385            682  HOH    0.417
  5896 O           23.811   -12.585     3.212            683  HOH   -0.834
  5897 H1          23.201   -12.319     3.900            683  HOH    0.417
  5898 H2          24.182   -11.764     2.890            683  HOH    0.417
  5899 O           23.811   -12.585     6.314            684  HOH   -0.834
  5900 H1          24.093   -11.733     5.983            684  HOH    0.417
  5901 H2          23.820   -13.156     5.546            684  HOH    0.417
  5902 O           23.811    -9.483   -12.298            685  HOH   -0.834
  5903 H1          23.775    -8.992   -11.477            685  HOH    0.417
  5904 H2          24.295   -10.279   -12.080            685  HOH    0.417
  5905 O           23.811    -9.483    -9.196            686  HOH   -0.834
  5906 H1          24.150    -9.729    -8.336            686  HOH    0.417
  5907 H2          22.952    -9.901    -9.244            686  HOH    0.417
  5908 O           23.811    -9.483    -6.094            687  HOH   -0.834
  5909 H1          23.701    -8.539    -5.982            687  HOH    0.417
  5910 H2          24.475    -9.726    -5.448            687  HOH    0.417
  5911 O           23.811    -9.483    -2.992            688  HOH   -0.834
  5912 H1          23.457    -8.971    -2.265            688  HOH    0.417
  5913 H2          23.047    -9.705    -3.524            688  HOH    0.417
  5914 O           23.811    -9.483     0.110            689  HOH   -0.834
  5915 H1          24.633    -9.048    -0.115            689  HOH    0.417
  5916 H2          23.478    -8.992     0.861            689  HOH    0.417
  5917 O           23.811    -9.483     3.212            690  HOH   -0.834
  5918 H1          23.793    -8.766     2.578            690  HOH    0.417
  5919 H2          24.692    -9.450     3.586            690  HOH    0.417
  5920 O           23.811    -9.483     6.314            691  HOH   -0.834
  5921 H1          24.601    -9.239     5.832            691  HOH    0.417
  5922 H2          23.096    -9.325     5.699            691  HOH    0.417
  5923 O           23.811    -6.381   -15.400            692  HOH   -0.834
  5924 H1          23.583    -6.754   -14.549            692  HOH    0.417
  5925 H2          23.104    -6.660   -15.982            692  HOH    0.417
  5926 O           23.811    -6.381   -12.298            693  HOH   -0.834
  5927 H1          23.216    -6.875   -11.735            693  HOH    0.417
  5928 H2          24.617    -6.304   -11.787            693  HOH    0.417
  5929 O           23.811    -6.381    -9.196            694  HOH   -0.834
  5930 H1          23.399    -6.260   -10.051            694  HOH    0.417
  5931 H2          23.776    -7.325    -9.044            694  HOH    0.417
  5932 O           23.811    -6.381    -6.094            695  HOH   -0.834
  5933 H1          24.606    -6.225    -6.604            695  HOH    0.417
  5934 H2          23.215    -5.682    -6.361            695  HOH    0.417
  5935 O           23.811    -6.381     0.110            696  HOH   -0.834
  5936 H1          23.555    -7.189    -0.335            696  HOH    0.417
  5937 H2          23.951    -6.643     1.020            696  HOH    0.417
  5938 O           23.811    -6.381     3.212            697  HOH   -0.834
  5939 H1          24.343    -6.658     2.466            697  HOH    0.417
  5940 H2          24.144    -6.895     3.948            697  HOH    0.417
  5941 O           23.811    -6.381     6.314            698  HOH   -0.834
  5942 H1          24.374    -6.035     7.007            698  HOH    0.417
  5943 H2          23.313    -5.623     6.009            698  HOH    0.417
  5944 O           23.811    -6.381     9.416            699  HOH   -0.834
  5945 H1          24.131    -7.187     9.012            699  HOH    0.417
  5946 H2          23.752    -6.587    10.349            699  HOH    0.417
  5947 O           23.811    -3.279   -12.298            700  HOH   -0.834
  5948 H1          24.696    -3.559   -12.063            700  HOH    0.417
  5949 H2          23.927    -2.763   -13.096            700  HOH    0.417
  5950 O           23.811    -3.279    -9.196            701  HOH   -0.834
  5951 H1          23.606    -2.373    -8.967            701  HOH    0.417
  5952 H2          22.975    -3.739    -9.129            701  HOH    0.417
  5953 O           23.811    -3.279    -6.094            702  HOH   -0.834
  5954 H1          24.630    -2.967    -5.709            702  HOH    0.417
  5955 H2          23.878    -3.047    -7.020            702  HOH    0.417
  5956 O           23.811    -0.177   -12.298            703  HOH   -0.834
  5957 H1          23.415    -0.474   -11.479            703  HOH    0.417
  5958 H2          23.157     0.404   -12.685            703  HOH    0.417
  5959 O           23.811    -0.177    -9.196            704  HOH   -0.834
  5960 H1          24.576     0.193    -8.756            704  HOH    0.417
  5961 H2          23.197     0.554    -9.265            704  HOH    0.417
  5962 O           23.811     2.925    -9.196            705  HOH   -0.834
  5963 H1          24.526     3.412    -9.607            705  HOH    0.417
  5964 H2          24.236     2.165    -8.799            705  HOH    0.417
  5965 O           23.811     6.027    -2.992            706  HOH   -0.834
  5966 H1          23.429     5.387    -2.392            706  HOH    0.417
  5967 H2          24.712     5.728    -3.118            706  HOH    0.417
  5968 O           26.913   -12.585    -6.094            707  HOH   -0.834
  5969 H1          26.784   -12.832    -5.179            707  HOH    0.417
  5970 H2          26.764   -13.394    -6.584            707  HOH    0.417
  5971 O           26.913   -12.585    -2.992            708  HOH   -0.834
  5972 H1          27.822   -12.712    -3.266            708  HOH    0.417
  5973 H2          26.549   -11.984    -3.641            708  HOH    0.417
  5974 O           26.913   -12.585     0.110            709  HOH   -0.834
  5975 H1          26.415   -12.651     0.924            709  HOH    0.417
  5976 H2          27.397   -11.763     0.190            709  HOH    0.417
  5977 O           26.913    -9.483    -9.196            710  HOH   -0.834
  5978 H1          27.241    -9.977    -9.947            710  HOH    0.417
  5979 H2          26.476    -8.724    -9.581            710  HOH    0.417
  5980 O           26.913    -9.483    -6.094            711  HOH   -0.834
  5981 H1          26.219   -10.128    -6.225            711  HOH    0.417
  5982 H2          26.715    -9.085    -5.247            711  HOH    0.417
  5983 O           26.913    -9.483    -2.992            712  HOH   -0.834
  5984 H1          27.341   -10.042    -3.640            712  HOH    0.417
  5985 H2          26.760    -8.657    -3.451            712  HOH    0.417
  5986 O           26.913    -9.483     0.110            713  HOH   -0.834
  5987 H1          27.350   -10.225    -0.307            713  HOH    0.417
  5988 H2          27.600    -9.060     0.626            713  HOH    0.417
  5989 O           26.913    -9.483     3.212            714  HOH   -0.834
  5990 H1          26.356    -9.889     2.549            714  HOH    0.417
  5991 H2          27.647   -10.089     3.313            714  HOH    0.417
  5992 O           26.913    -6.381    -9.196            715  HOH   -0.834
  5993 H1          26.036    -6.070    -8.976            715  HOH    0.417
  5994 H2          26.791    -6.905    -9.987            715  HOH    0.417
  5995 O           26.913    -6.381    -6.094            716  HOH   -0.834
  5996 H1          27.834    -6.165    -5.950            716  HOH    0.417
  5997 H2          26.606    -6.701    -5.246            716  HOH    0.417
  5998 O           26.913    -6.381    -2.992            717  HOH   -0.834
  5999 H1          27.600    -5.887    -3.440            717  HOH    0.417
  6000 H2          26.228    -6.491    -3.651            717  HOH    0.417
  6001 O           26.913    -6.381     0.110            718  HOH   -0.834
  6002 H1          27.425    -5.578     0.015            718  HOH    0.417
  6003 H2          27.568    -7.070     0.226            718  HOH    0.417
  6004 O           26.913    -6.381     3.212            719  HOH   -0.834
  6005 H1          27.103    -7.301     3.397            719  HOH    0.417
  6006 H2          27.671    -5.907     3.555            719  HOH    0.417
  6007 O           26.913    -3.279    -9.196            720  HOH   -0.834
  6008 H1          26.916    -4.234    -9.253            720  HOH    0.417
  6009 H2          27.371    -2.990    -9.985            720  HOH    0.417
  6010 O           26.913    -3.279    -6.094            721  HOH   -0.834
  6011 H1          26.257    -2.844    -6.637            721  HOH    0.417
  6012 H2          26.496    -4.096    -5.822            721  HOH    0.417
  6013 O           26.913    -3.279     3.212            722  HOH   -0.834
  6014 H1          27.397    -3.900     2.668            722  HOH    0.417
  6015 H2          27.437    -3.199     4.009            722  HOH    0.417
  6016 O           26.913    -0.177    -6.094            723  HOH   -0.834
  6017 H1          26.376    -0.327    -5.317            723  HOH    0.417
  6018 H2          26.326     0.256    -6.713            723  HOH    0.417
  6019 O           26.913    -0.177    -2.992            724  HOH   -0.834
  6020 H1          27.203    -0.782    -3.675            724  HOH    0.417
  6021 H2          27.597    -0.225    -2.324            724  HOH    0.417
  6022 O           26.913    -0.177     0.110            725  HOH   -0.834
  6023 H1          26.738    -0.695     0.895            725  HOH    0.417
  6024 H2          26.692    -0.759    -0.616            725  HOH    0.417
@<TRIPOS>BOND
     1      1      2      1
     2      1      3      1
     3      3      4      1
     4      3      5      1
     5      5      6      1
     6      5      7      1
     7      7      8      1
     8      7      9      1
     9      7     10      1
    10      5     11      1
    11     11     12      1
    12     11     13      1
    13     11     14      1
    14     14     15      1
    15     14     16      1
    16     14     17      1
    17      3     18      1
    18     18     19      1
    19     18     20      1
    20     20     21      1
    21     20     22      1
    22     22     23      1
    23     22     24      1
    24     24     25      1
    25     24     26      1
    26     24     27      1
    27     27     28      1
    28     27     29      1
    29     27     30      1
    30     30     31      1
    31     30     32      1
    32     22     33      1
    33     33     34      1
    34     33     35      1
    35     35     36      1
    36     35     37      1
    37     37     38      1
    38     37     39      1
    39     39     40      1
    40     39     41      1
    41     39     42      1
    42     42     43      1
    43     42     44      1
    44     42     45      1
    45     45     46      1
    46     45     47      1
    47     47     48      1
    48     47     49      1
    49     37     50      1
    50     50     51      1
    51     50     52      1
    52     52     53      1
    53     53     54      1
    54     53     55      1
    55     53     56      1
    56     56     57      1
    57     56     58      1
    58     56     59      1
    59     59     60      1
    60     59     61      1
    61     52     62      1
    62     62     63      1
    63     62     64      1
    64     64     65      1
    65     59     62      1
    66     64     66      1
    67     66     67      1
    68     66     68      1
    69     68     69      1
    70     68     70      1
    71     70     71      1
    72     70     72      1
    73     70     73      1
    74     73     74      1
    75     73     75      1
    76     73     76      1
    77     76     77      1
    78     76     78      1
    79     76     79      1
    80     79     80      1
    81     79     81      1
    82     81     82      1
    83     82     83      1
    84     82     84      1
    85     81     85      1
    86     85     86      1
    87     85     87      1
    88     68     88      1
    89     88     89      1
    90     88     90      1
    91     90     91      1
    92     90     92      1
    93     92     93      1
    94     92     94      1
    95     94     95      1
    96     94     96      1
    97     94     97      1
    98     97     98      1
    99     98     99      1
   100     98    100      1
   101    100    101      1
   102    100    102      1
   103    102    103      1
   104    103    104      1
   105    103    105      1
   106    105    106      1
   107    105    107      1
   108    107    108      1
   109    107    109      1
   110    109    110      1
   111    109    111      1
   112     92    112      1
   113    112    113      1
   114     97    111      1
   115    102    111      1
   116    112    114      1
   117    114    115      1
   118    114    116      1
   119    116    117      1
   120    116    118      1
   121    118    119      1
   122    118    120      1
   123    118    121      1
   124    116    122      1
   125    122    123      1
   126    122    124      1
   127    124    125      1
   128    124    126      1
   129    126    127      1
   130    126    128      1
   131    128    129      1
   132    128    130      1
   133    128    131      1
   134    131    132      1
   135    126    133      1
   136    133    134      1
   137    133    135      1
   138    135    136      1
   139    135    137      1
   140    137    138      1
   141    137    139      1
   142    139    140      1
   143    139    141      1
   144    139    142      1
   145    142    143      1
   146    142    144      1
   147    142    145      1
   148    145    146      1
   149    145    147      1
   150    145    148      1
   151    148    149      1
   152    148    150      1
   153    148    151      1
   154    151    152      1
   155    151    153      1
   156    151    154      1
   157    137    155      1
   158    155    156      1
   159    155    157      1
   160    157    158      1
   161    157    159      1
   162    159    160      1
   163    159    161      1
   164    161    162      1
   165    161    163      1
   166    161    164      1
   167    164    165      1
   168    164    166      1
   169    159    167      1
   170    167    168      1
   171    167    169      1
   172    169    170      1
   173    170    171      1
   174    170    172      1
   175    170    173      1
   176    173    174      1
   177    173    175      1
   178    173    176      1
   179    176    177      1
   180    176    178      1
   181    169    179      1
   182    179    180      1
   183    179    181      1
   184    181    182      1
   185    176    179      1
   186    181    183      1
   187    183    184      1
   188    183    185      1
   189    185    186      1
   190    185    187      1
   191    187    188      1
   192    187    189      1
   193    187    190      1
   194    185    191      1
   195    191    192      1
   196    191    193      1
   197    193    194      1
   198    193    195      1
   199    195    196      1
   200    195    197      1
   201    197    198      1
   202    197    199      1
   203    197    200      1
   204    195    201      1
   205    201    202      1
   206    201    203      1
   207    203    204      1
   208    203    205      1
   209    205    206      1
   210    205    207      1
   211    205    208      1
   212    208    209      1
   213    208    210      1
   214    210    211      1
   215    210    212      1
   216    212    213      1
   217    212    214      1
   218    214    215      1
   219    214    216      1
   220    214    217      1
   221    217    218      1
   222    217    219      1
   223    217    220      1
   224    220    221      1
   225    220    222      1
   226    220    223      1
   227    223    224      1
   228    223    225      1
   229    223    226      1
   230    226    227      1
   231    226    228      1
   232    226    229      1
   233    212    230      1
   234    230    231      1
   235    230    232      1
   236    232    233      1
   237    232    234      1
   238    234    235      1
   239    234    236      1
   240    236    237      1
   241    236    238      1
   242    236    239      1
   243    234    240      1
   244    240    241      1
   245    240    242      1
   246    242    243      1
   247    242    244      1
   248    244    245      1
   249    244    246      1
   250    246    247      1
   251    246    248      1
   252    246    249      1
   253    249    250      1
   254    244    251      1
   255    251    252      1
   256    251    253      1
   257    253    254      1
   258    253    255      1
   259    255    256      1
   260    255    257      1
   261    257    258      1
   262    257    259      1
   263    259    260      1
   264    259    261      1
   265    259    262      1
   266    257    263      1
   267    263    264      1
   268    255    265      1
   269    265    266      1
   270    265    267      1
   271    267    268      1
   272    268    269      1
   273    268    270      1
   274    268    271      1
   275    271    272      1
   276    271    273      1
   277    271    274      1
   278    274    275      1
   279    274    276      1
   280    267    277      1
   281    277    278      1
   282    277    279      1
   283    279    280      1
   284    274    277      1
   285    279    281      1
   286    281    282      1
   287    281    283      1
   288    283    284      1
   289    283    285      1
   290    285    286      1
   291    285    287      1
   292    285    288      1
   293    288    289      1
   294    288    290      1
   295    283    291      1
   296    291    292      1
   297    291    293      1
   298    293    294      1
   299    293    295      1
   300    295    296      1
   301    295    297      1
   302    297    298      1
   303    297    299      1
   304    297    300      1
   305    300    301      1
   306    300    302      1
   307    300    303      1
   308    303    304      1
   309    303    305      1
   310    295    306      1
   311    306    307      1
   312    306    308      1
   313    308    309      1
   314    308    310      1
   315    310    311      1
   316    310    312      1
   317    312    313      1
   318    312    314      1
   319    312    315      1
   320    315    316      1
   321    315    317      1
   322    315    318      1
   323    318    319      1
   324    318    320      1
   325    318    321      1
   326    321    322      1
   327    321    323      1
   328    321    324      1
   329    324    325      1
   330    324    326      1
   331    324    327      1
   332    310    328      1
   333    328    329      1
   334    328    330      1
   335    330    331      1
   336    330    332      1
   337    332    333      1
   338    332    334      1
   339    334    335      1
   340    334    336      1
   341    336    337      1
   342    336    338      1
   343    336    339      1
   344    334    340      1
   345    340    341      1
   346    340    342      1
   347    340    343      1
   348    343    344      1
   349    343    345      1
   350    343    346      1
   351    332    347      1
   352    347    348      1
   353    347    349      1
   354    349    350      1
   355    349    351      1
   356    351    352      1
   357    351    353      1
   358    353    354      1
   359    353    355      1
   360    355    356      1
   361    355    357      1
   362    355    358      1
   363    353    359      1
   364    359    360      1
   365    359    361      1
   366    359    362      1
   367    351    363      1
   368    363    364      1
   369    363    365      1
   370    365    366      1
   371    365    367      1
   372    367    368      1
   373    367    369      1
   374    369    370      1
   375    369    371      1
   376    369    372      1
   377    372    373      1
   378    372    374      1
   379    374    375      1
   380    374    376      1
   381    374    377      1
   382    372    378      1
   383    378    379      1
   384    378    380      1
   385    378    381      1
   386    367    382      1
   387    382    383      1
   388    382    384      1
   389    384    385      1
   390    384    386      1
   391    386    387      1
   392    386    388      1
   393    388    389      1
   394    388    390      1
   395    388    391      1
   396    391    392      1
   397    391    393      1
   398    391    394      1
   399    394    395      1
   400    394    396      1
   401    386    397      1
   402    397    398      1
   403    397    399      1
   404    399    400      1
   405    399    401      1
   406    401    402      1
   407    401    403      1
   408    403    404      1
   409    403    405      1
   410    403    406      1
   411    406    407      1
   412    407    408      1
   413    407    409      1
   414    409    410      1
   415    409    411      1
   416    411    412      1
   417    411    413      1
   418    413    414      1
   419    413    415      1
   420    415    416      1
   421    401    417      1
   422    417    418      1
   423    406    415      1
   424    417    419      1
   425    419    420      1
   426    419    421      1
   427    421    422      1
   428    421    423      1
   429    423    424      1
   430    423    425      1
   431    423    426      1
   432    426    427      1
   433    426    428      1
   434    426    429      1
   435    429    430      1
   436    430    431      1
   437    430    432      1
   438    430    433      1
   439    421    434      1
   440    434    435      1
   441    434    436      1
   442    436    437      1
   443    436    438      1
   444    438    439      1
   445    438    440      1
   446    440    441      1
   447    440    442      1
   448    440    443      1
   449    443    444      1
   450    443    445      1
   451    438    446      1
   452    446    447      1
   453    446    448      1
   454    448    449      1
   455    448    450      1
   456    450    451      1
   457    450    452      1
   458    452    453      1
   459    452    454      1
   460    452    455      1
   461    450    456      1
   462    456    457      1
   463    456    458      1
   464    458    459      1
   465    458    460      1
   466    460    461      1
   467    460    462      1
   468    462    463      1
   469    462    464      1
   470    462    465      1
   471    465    466      1
   472    465    467      1
   473    467    468      1
   474    467    469      1
   475    467    470      1
   476    465    471      1
   477    471    472      1
   478    471    473      1
   479    471    474      1
   480    460    475      1
   481    475    476      1
   482    475    477      1
   483    477    478      1
   484    477    479      1
   485    479    480      1
   486    479    481      1
   487    481    482      1
   488    481    483      1
   489    483    484      1
   490    483    485      1
   491    483    486      1
   492    481    487      1
   493    487    488      1
   494    479    489      1
   495    489    490      1
   496    489    491      1
   497    491    492      1
   498    491    493      1
   499    493    494      1
   500    493    495      1
   501    495    496      1
   502    495    497      1
   503    495    498      1
   504    498    499      1
   505    493    500      1
   506    500    501      1
   507    500    502      1
   508    502    503      1
   509    502    504      1
   510    504    505      1
   511    504    506      1
   512    506    507      1
   513    506    508      1
   514    506    509      1
   515    509    510      1
   516    509    511      1
   517    511    512      1
   518    511    513      1
   519    504    514      1
   520    514    515      1
   521    514    516      1
   522    516    517      1
   523    516    518      1
   524    518    519      1
   525    518    520      1
   526    520    521      1
   527    520    522      1
   528    520    523      1
   529    523    524      1
   530    523    525      1
   531    518    526      1
   532    526    527      1
   533    526    528      1
   534    528    529      1
   535    528    530      1
   536    530    531      1
   537    530    532      1
   538    532    533      1
   539    532    534      1
   540    532    535      1
   541    530    536      1
   542    536    537      1
   543    536    538      1
   544    538    539      1
   545    538    540      1
   546    540    541      1
   547    540    542      1
   548    542    543      1
   549    542    544      1
   550    542    545      1
   551    540    546      1
   552    546    547      1
   553    546    548      1
   554    548    549      1
   555    548    550      1
   556    550    551      1
   557    550    552      1
   558    552    553      1
   559    552    554      1
   560    552    555      1
   561    555    556      1
   562    555    557      1
   563    555    558      1
   564    558    559      1
   565    558    560      1
   566    558    561      1
   567    561    562      1
   568    561    563      1
   569    561    564      1
   570    564    565      1
   571    564    566      1
   572    564    567      1
   573    550    568      1
   574    568    569      1
   575    568    570      1
   576    570    571      1
   577    570    572      1
   578    572    573      1
   579    572    574      1
   580    574    575      1
   581    574    576      1
   582    574    577      1
   583    577    578      1
   584    577    579      1
   585    579    580      1
   586    579    581      1
   587    579    582      1
   588    577    583      1
   589    583    584      1
   590    583    585      1
   591    583    586      1
   592    572    587      1
   593    587    588      1
   594    587    589      1
   595    589    590      1
   596    589    591      1
   597    591    592      1
   598    591    593      1
   599    593    594      1
   600    593    595      1
   601    595    596      1
   602    595    597      1
   603    595    598      1
   604    593    599      1
   605    599    600      1
   606    599    601      1
   607    599    602      1
   608    602    603      1
   609    602    604      1
   610    602    605      1
   611    591    606      1
   612    606    607      1
   613    606    608      1
   614    608    609      1
   615    608    610      1
   616    610    611      1
   617    610    612      1
   618    612    613      1
   619    612    614      1
   620    612    615      1
   621    615    616      1
   622    615    617      1
   623    615    618      1
   624    618    619      1
   625    618    620      1
   626    618    621      1
   627    621    622      1
   628    621    623      1
   629    621    624      1
   630    624    625      1
   631    624    626      1
   632    624    627      1
   633    610    628      1
   634    628    629      1
   635    628    630      1
   636    630    631      1
   637    630    632      1
   638    632    633      1
   639    632    634      1
   640    634    635      1
   641    634    636      1
   642    634    637      1
   643    637    638      1
   644    638    639      1
   645    638    640      1
   646    640    641      1
   647    640    642      1
   648    642    643      1
   649    643    644      1
   650    642    645      1
   651    645    646      1
   652    645    647      1
   653    647    648      1
   654    632    649      1
   655    649    650      1
   656    637    647      1
   657    649    651      1
   658    651    652      1
   659    651    653      1
   660    653    654      1
   661    653    655      1
   662    655    656      1
   663    655    657      1
   664    655    658      1
   665    658    659      1
   666    659    660      1
   667    659    661      1
   668    661    662      1
   669    661    663      1
   670    663    664      1
   671    663    665      1
   672    665    666      1
   673    665    667      1
   674    667    668      1
   675    653    669      1
   676    669    670      1
   677    658    667      1
   678    669    671      1
   679    671    672      1
   680    671    673      1
   681    673    674      1
   682    673    675      1
   683    675    676      1
   684    675    677      1
   685    675    678      1
   686    673    679      1
   687    679    680      1
   688    679    681      1
   689    681    682      1
   690    681    683      1
   691    683    684      1
   692    683    685      1
   693    685    686      1
   694    685    687      1
   695    685    688      1
   696    688    689      1
   697    688    690      1
   698    688    691      1
   699    691    692      1
   700    691    693      1
   701    683    694      1
   702    694    695      1
   703    694    696      1
   704    696    697      1
   705    696    698      1
   706    698    699      1
   707    698    700      1
   708    700    701      1
   709    700    702      1
   710    700    703      1
   711    703    704      1
   712    703    705      1
   713    698    706      1
   714    706    707      1
   715    706    708      1
   716    708    709      1
   717    708    710      1
   718    710    711      1
   719    710    712      1
   720    712    713      1
   721    712    714      1
   722    714    715      1
   723    714    716      1
   724    714    717      1
   725    712    718      1
   726    718    719      1
   727    710    720      1
   728    720    721      1
   729    720    722      1
   730    722    723      1
   731    722    724      1
   732    724    725      1
   733    724    726      1
   734    726    727      1
   735    726    728      1
   736    726    729      1
   737    729    730      1
   738    729    731      1
   739    729    732      1
   740    732    733      1
   741    733    734      1
   742    733    735      1
   743    733    736      1
   744    724    737      1
   745    737    738      1
   746    737    739      1
   747    739    740      1
   748    739    741      1
   749    741    742      1
   750    741    743      1
   751    743    744      1
   752    743    745      1
   753    743    746      1
   754    746    747      1
   755    747    748      1
   756    747    749      1
   757    749    750      1
   758    749    751      1
   759    751    752      1
   760    752    753      1
   761    751    754      1
   762    754    755      1
   763    754    756      1
   764    756    757      1
   765    741    758      1
   766    758    759      1
   767    746    756      1
   768    758    760      1
   769    760    761      1
   770    760    762      1
   771    762    763      1
   772    762    764      1
   773    764    765      1
   774    764    766      1
   775    764    767      1
   776    767    768      1
   777    767    769      1
   778    767    770      1
   779    770    771      1
   780    770    772      1
   781    772    773      1
   782    772    774      1
   783    762    775      1
   784    775    776      1
   785    775    777      1
   786    777    778      1
   787    777    779      1
   788    779    780      1
   789    779    781      1
   790    781    782      1
   791    781    783      1
   792    781    784      1
   793    784    785      1
   794    784    786      1
   795    786    787      1
   796    786    788      1
   797    779    789      1
   798    789    790      1
   799    789    791      1
   800    791    792      1
   801    791    793      1
   802    793    794      1
   803    793    795      1
   804    795    796      1
   805    795    797      1
   806    795    798      1
   807    798    799      1
   808    798    800      1
   809    798    801      1
   810    801    802      1
   811    802    803      1
   812    802    804      1
   813    802    805      1
   814    793    806      1
   815    806    807      1
   816    806    808      1
   817    808    809      1
   818    809    810      1
   819    809    811      1
   820    809    812      1
   821    812    813      1
   822    812    814      1
   823    812    815      1
   824    815    816      1
   825    815    817      1
   826    808    818      1
   827    818    819      1
   828    818    820      1
   829    820    821      1
   830    815    818      1
   831    820    822      1
   832    822    823      1
   833    822    824      1
   834    824    825      1
   835    824    826      1
   836    826    827      1
   837    826    828      1
   838    826    829      1
   839    829    830      1
   840    829    831      1
   841    831    832      1
   842    831    833      1
   843    831    834      1
   844    829    835      1
   845    835    836      1
   846    835    837      1
   847    835    838      1
   848    824    839      1
   849    839    840      1
   850    839    841      1
   851    841    842      1
   852    842    843      1
   853    842    844      1
   854    842    845      1
   855    845    846      1
   856    845    847      1
   857    845    848      1
   858    848    849      1
   859    848    850      1
   860    841    851      1
   861    851    852      1
   862    851    853      1
   863    853    854      1
   864    848    851      1
   865    853    855      1
   866    855    856      1
   867    856    857      1
   868    856    858      1
   869    856    859      1
   870    859    860      1
   871    859    861      1
   872    859    862      1
   873    862    863      1
   874    862    864      1
   875    855    865      1
   876    865    866      1
   877    865    867      1
   878    867    868      1
   879    862    865      1
   880    867    869      1
   881    869    870      1
   882    869    871      1
   883    871    872      1
   884    871    873      1
   885    873    874      1
   886    873    875      1
   887    873    876      1
   888    871    877      1
   889    877    878      1
   890    877    879      1
   891    879    880      1
   892    879    881      1
   893    881    882      1
   894    881    883      1
   895    883    884      1
   896    883    885      1
   897    883    886      1
   898    886    887      1
   899    887    888      1
   900    887    889      1
   901    889    890      1
   902    889    891      1
   903    891    892      1
   904    892    893      1
   905    891    894      1
   906    894    895      1
   907    894    896      1
   908    896    897      1
   909    881    898      1
   910    898    899      1
   911    886    896      1
   912    898    900      1
   913    900    901      1
   914    900    902      1
   915    902    903      1
   916    902    904      1
   917    902    905      1
   918    905    906      1
   919    905    907      1
   920    907    908      1
   921    907    909      1
   922    909    910      1
   923    909    911      1
   924    911    912      1
   925    911    913      1
   926    911    914      1
   927    914    915      1
   928    914    916      1
   929    914    917      1
   930    917    918      1
   931    917    919      1
   932    917    920      1
   933    920    921      1
   934    920    922      1
   935    922    923      1
   936    923    924      1
   937    923    925      1
   938    922    926      1
   939    926    927      1
   940    926    928      1
   941    909    929      1
   942    929    930      1
   943    929    931      1
   944    931    932      1
   945    931    933      1
   946    933    934      1
   947    933    935      1
   948    935    936      1
   949    935    937      1
   950    935    938      1
   951    938    939      1
   952    938    940      1
   953    933    941      1
   954    941    942      1
   955    941    943      1
   956    943    944      1
   957    943    945      1
   958    945    946      1
   959    945    947      1
   960    947    948      1
   961    947    949      1
   962    947    950      1
   963    945    951      1
   964    951    952      1
   965    951    953      1
   966    953    954      1
   967    953    955      1
   968    955    956      1
   969    955    957      1
   970    957    958      1
   971    957    959      1
   972    959    960      1
   973    959    961      1
   974    959    962      1
   975    957    963      1
   976    963    964      1
   977    963    965      1
   978    963    966      1
   979    955    967      1
   980    967    968      1
   981    967    969      1
   982    969    970      1
   983    969    971      1
   984    971    972      1
   985    971    973      1
   986    973    974      1
   987    973    975      1
   988    973    976      1
   989    976    977      1
   990    976    978      1
   991    976    979      1
   992    979    980      1
   993    979    981      1
   994    971    982      1
   995    982    983      1
   996    982    984      1
   997    984    985      1
   998    984    986      1
   999    986    987      1
  1000    986    988      1
  1001    988    989      1
  1002    988    990      1
  1003    988    991      1
  1004    991    992      1
  1005    991    993      1
  1006    991    994      1
  1007    994    995      1
  1008    994    996      1
  1009    996    997      1
  1010    996    998      1
  1011    986    999      1
  1012    999   1000      1
  1013    999   1001      1
  1014   1001   1002      1
  1015   1001   1003      1
  1016   1003   1004      1
  1017   1003   1005      1
  1018   1005   1006      1
  1019   1005   1007      1
  1020   1007   1008      1
  1021   1007   1009      1
  1022   1007   1010      1
  1023   1005   1011      1
  1024   1011   1012      1
  1025   1003   1013      1
  1026   1013   1014      1
  1027   1013   1015      1
  1028   1015   1016      1
  1029   1015   1017      1
  1030   1017   1018      1
  1031   1017   1019      1
  1032   1019   1020      1
  1033   1019   1021      1
  1034   1019   1022      1
  1035   1022   1023      1
  1036   1022   1024      1
  1037   1024   1025      1
  1038   1024   1026      1
  1039   1024   1027      1
  1040   1022   1028      1
  1041   1028   1029      1
  1042   1028   1030      1
  1043   1028   1031      1
  1044   1017   1032      1
  1045   1032   1033      1
  1046   1032   1034      1
  1047   1034   1035      1
  1048   1034   1036      1
  1049   1036   1037      1
  1050   1036   1038      1
  1051   1038   1039      1
  1052   1038   1040      1
  1053   1038   1041      1
  1054   1036   1042      1
  1055   1042   1043      1
  1056   1042   1044      1
  1057   1044   1045      1
  1058   1044   1046      1
  1059   1046   1047      1
  1060   1046   1048      1
  1061   1046   1049      1
  1062   1049   1050      1
  1063   1049   1051      1
  1064   1051   1052      1
  1065   1051   1053      1
  1066   1053   1054      1
  1067   1053   1055      1
  1068   1055   1056      1
  1069   1055   1057      1
  1070   1055   1058      1
  1071   1058   1059      1
  1072   1058   1060      1
  1073   1060   1061      1
  1074   1060   1062      1
  1075   1060   1063      1
  1076   1058   1064      1
  1077   1064   1065      1
  1078   1064   1066      1
  1079   1064   1067      1
  1080   1053   1068      1
  1081   1068   1069      1
  1082   1068   1070      1
  1083   1070   1071      1
  1084   1070   1072      1
  1085   1072   1073      1
  1086   1072   1074      1
  1087   1074   1075      1
  1088   1074   1076      1
  1089   1074   1077      1
  1090   1077   1078      1
  1091   1078   1079      1
  1092   1078   1080      1
  1093   1080   1081      1
  1094   1080   1082      1
  1095   1082   1083      1
  1096   1082   1084      1
  1097   1084   1085      1
  1098   1084   1086      1
  1099   1086   1087      1
  1100   1072   1088      1
  1101   1088   1089      1
  1102   1077   1086      1
  1103   1088   1090      1
  1104   1090   1091      1
  1105   1090   1092      1
  1106   1092   1093      1
  1107   1092   1094      1
  1108   1094   1095      1
  1109   1094   1096      1
  1110   1094   1097      1
  1111   1097   1098      1
  1112   1097   1099      1
  1113   1097   1100      1
  1114   1100   1101      1
  1115   1100   1102      1
  1116   1100   1103      1
  1117   1103   1104      1
  1118   1103   1105      1
  1119   1103   1106      1
  1120   1106   1107      1
  1121   1106   1108      1
  1122   1106   1109      1
  1123   1092   1110      1
  1124   1110   1111      1
  1125   1110   1112      1
  1126   1112   1113      1
  1127   1112   1114      1
  1128   1114   1115      1
  1129   1114   1116      1
  1130   1116   1117      1
  1131   1116   1118      1
  1132   1118   1119      1
  1133   1118   1120      1
  1134   1118   1121      1
  1135   1116   1122      1
  1136   1122   1123      1
  1137   1122   1124      1
  1138   1122   1125      1
  1139   1114   1126      1
  1140   1126   1127      1
  1141   1126   1128      1
  1142   1128   1129      1
  1143   1128   1130      1
  1144   1130   1131      1
  1145   1130   1132      1
  1146   1132   1133      1
  1147   1132   1134      1
  1148   1132   1135      1
  1149   1135   1136      1
  1150   1135   1137      1
  1151   1135   1138      1
  1152   1138   1139      1
  1153   1139   1140      1
  1154   1139   1141      1
  1155   1139   1142      1
  1156   1130   1143      1
  1157   1143   1144      1
  1158   1143   1145      1
  1159   1145   1146      1
  1160   1145   1147      1
  1161   1147   1148      1
  1162   1147   1149      1
  1163   1149   1150      1
  1164   1149   1151      1
  1165   1149   1152      1
  1166   1152   1153      1
  1167   1147   1154      1
  1168   1154   1155      1
  1169   1154   1156      1
  1170   1156   1157      1
  1171   1156   1158      1
  1172   1158   1159      1
  1173   1158   1160      1
  1174   1160   1161      1
  1175   1160   1162      1
  1176   1162   1163      1
  1177   1162   1164      1
  1178   1162   1165      1
  1179   1160   1166      1
  1180   1166   1167      1
  1181   1166   1168      1
  1182   1166   1169      1
  1183   1169   1170      1
  1184   1169   1171      1
  1185   1169   1172      1
  1186   1158   1173      1
  1187   1173   1174      1
  1188   1173   1175      1
  1189   1175   1176      1
  1190   1175   1177      1
  1191   1177   1178      1
  1192   1177   1179      1
  1193   1179   1180      1
  1194   1179   1181      1
  1195   1179   1182      1
  1196   1182   1183      1
  1197   1182   1184      1
  1198   1177   1185      1
  1199   1185   1186      1
  1200   1185   1187      1
  1201   1187   1188      1
  1202   1187   1189      1
  1203   1189   1190      1
  1204   1189   1191      1
  1205   1191   1192      1
  1206   1191   1193      1
  1207   1191   1194      1
  1208   1189   1195      1
  1209   1195   1196      1
  1210   1195   1197      1
  1211   1197   1198      1
  1212   1197   1199      1
  1213   1199   1200      1
  1214   1199   1201      1
  1215   1201   1202      1
  1216   1201   1203      1
  1217   1203   1204      1
  1218   1203   1205      1
  1219   1203   1206      1
  1220   1201   1207      1
  1221   1207   1208      1
  1222   1207   1209      1
  1223   1207   1210      1
  1224   1199   1211      1
  1225   1211   1212      1
  1226   1211   1213      1
  1227   1213   1214      1
  1228   1213   1215      1
  1229   1215   1216      1
  1230   1215   1217      1
  1231   1217   1218      1
  1232   1217   1219      1
  1233   1217   1220      1
  1234   1220   1221      1
  1235   1220   1222      1
  1236   1220   1223      1
  1237   1223   1224      1
  1238   1223   1225      1
  1239   1215   1226      1
  1240   1226   1227      1
  1241   1226   1228      1
  1242   1228   1229      1
  1243   1228   1230      1
  1244   1230   1231      1
  1245   1230   1232      1
  1246   1232   1233      1
  1247   1232   1234      1
  1248   1234   1235      1
  1249   1234   1236      1
  1250   1234   1237      1
  1251   1232   1238      1
  1252   1238   1239      1
  1253   1238   1240      1
  1254   1238   1241      1
  1255   1230   1242      1
  1256   1242   1243      1
  1257   1242   1244      1
  1258   1244   1245      1
  1259   1244   1246      1
  1260   1246   1247      1
  1261   1246   1248      1
  1262   1248   1249      1
  1263   1248   1250      1
  1264   1248   1251      1
  1265   1251   1252      1
  1266   1252   1253      1
  1267   1252   1254      1
  1268   1254   1255      1
  1269   1254   1256      1
  1270   1256   1257      1
  1271   1256   1258      1
  1272   1258   1259      1
  1273   1258   1260      1
  1274   1260   1261      1
  1275   1246   1262      1
  1276   1262   1263      1
  1277   1251   1260      1
  1278   1262   1264      1
  1279   1264   1265      1
  1280   1264   1266      1
  1281   1266   1267      1
  1282   1266   1268      1
  1283   1268   1269      1
  1284   1268   1270      1
  1285   1268   1271      1
  1286   1271   1272      1
  1287   1272   1273      1
  1288   1272   1274      1
  1289   1274   1275      1
  1290   1274   1276      1
  1291   1276   1277      1
  1292   1276   1278      1
  1293   1278   1279      1
  1294   1266   1280      1
  1295   1280   1281      1
  1296   1271   1278      1
  1297   1280   1282      1
  1298   1282   1283      1
  1299   1282   1284      1
  1300   1284   1285      1
  1301   1284   1286      1
  1302   1286   1287      1
  1303   1286   1288      1
  1304   1288   1289      1
  1305   1288   1290      1
  1306   1288   1291      1
  1307   1286   1292      1
  1308   1292   1293      1
  1309   1292   1294      1
  1310   1292   1295      1
  1311   1295   1296      1
  1312   1295   1297      1
  1313   1295   1298      1
  1314   1284   1299      1
  1315   1299   1300      1
  1316   1299   1301      1
  1317   1301   1302      1
  1318   1301   1303      1
  1319   1303   1304      1
  1320   1303   1305      1
  1321   1303   1306      1
  1322   1306   1307      1
  1323   1306   1308      1
  1324   1308   1309      1
  1325   1308   1310      1
  1326   1310   1311      1
  1327   1310   1312      1
  1328   1312   1313      1
  1329   1312   1314      1
  1330   1312   1315      1
  1331   1315   1316      1
  1332   1310   1317      1
  1333   1317   1318      1
  1334   1317   1319      1
  1335   1319   1320      1
  1336   1319   1321      1
  1337   1321   1322      1
  1338   1321   1323      1
  1339   1323   1324      1
  1340   1323   1325      1
  1341   1323   1326      1
  1342   1326   1327      1
  1343   1321   1328      1
  1344   1328   1329      1
  1345   1328   1330      1
  1346   1330   1331      1
  1347   1330   1332      1
  1348   1332   1333      1
  1349   1332   1334      1
  1350   1334   1335      1
  1351   1334   1336      1
  1352   1334   1337      1
  1353   1337   1338      1
  1354   1337   1339      1
  1355   1337   1340      1
  1356   1340   1341      1
  1357   1340   1342      1
  1358   1340   1343      1
  1359   1343   1344      1
  1360   1343   1345      1
  1361   1343   1346      1
  1362   1346   1347      1
  1363   1346   1348      1
  1364   1346   1349      1
  1365   1332   1350      1
  1366   1350   1351      1
  1367   1350   1352      1
  1368   1352   1353      1
  1369   1352   1354      1
  1370   1354   1355      1
  1371   1354   1356      1
  1372   1354   1357      1
  1373   1357   1358      1
  1374   1357   1359      1
  1375   1359   1360      1
  1376   1359   1361      1
  1377   1361   1362      1
  1378   1361   1363      1
  1379   1363   1364      1
  1380   1363   1365      1
  1381   1363   1366      1
  1382   1366   1367      1
  1383   1366   1368      1
  1384   1368   1369      1
  1385   1368   1370      1
  1386   1368   1371      1
  1387   1366   1372      1
  1388   1372   1373      1
  1389   1372   1374      1
  1390   1372   1375      1
  1391   1361   1376      1
  1392   1376   1377      1
  1393   1376   1378      1
  1394   1378   1379      1
  1395   1378   1380      1
  1396   1380   1381      1
  1397   1380   1382      1
  1398   1382   1383      1
  1399   1382   1384      1
  1400   1384   1385      1
  1401   1384   1386      1
  1402   1384   1387      1
  1403   1382   1388      1
  1404   1388   1389      1
  1405   1388   1390      1
  1406   1388   1391      1
  1407   1380   1392      1
  1408   1392   1393      1
  1409   1392   1394      1
  1410   1394   1395      1
  1411   1394   1396      1
  1412   1396   1397      1
  1413   1396   1398      1
  1414   1398   1399      1
  1415   1398   1400      1
  1416   1398   1401      1
  1417   1401   1402      1
  1418   1402   1403      1
  1419   1402   1404      1
  1420   1404   1405      1
  1421   1404   1406      1
  1422   1406   1407      1
  1423   1406   1408      1
  1424   1408   1409      1
  1425   1408   1410      1
  1426   1410   1411      1
  1427   1396   1412      1
  1428   1412   1413      1
  1429   1401   1410      1
  1430   1412   1414      1
  1431   1414   1415      1
  1432   1414   1416      1
  1433   1416   1417      1
  1434   1416   1418      1
  1435   1418   1419      1
  1436   1418   1420      1
  1437   1420   1421      1
  1438   1420   1422      1
  1439   1420   1423      1
  1440   1418   1424      1
  1441   1424   1425      1
  1442   1416   1426      1
  1443   1426   1427      1
  1444   1426   1428      1
  1445   1428   1429      1
  1446   1428   1430      1
  1447   1430   1431      1
  1448   1430   1432      1
  1449   1432   1433      1
  1450   1432   1434      1
  1451   1432   1435      1
  1452   1435   1436      1
  1453   1435   1437      1
  1454   1435   1438      1
  1455   1438   1439      1
  1456   1438   1440      1
  1457   1430   1441      1
  1458   1441   1442      1
  1459   1441   1443      1
  1460   1443   1444      1
  1461   1443   1445      1
  1462   1445   1446      1
  1463   1445   1447      1
  1464   1447   1448      1
  1465   1447   1449      1
  1466   1447   1450      1
  1467   1450   1451      1
  1468   1450   1452      1
  1469   1450   1453      1
  1470   1453   1454      1
  1471   1453   1455      1
  1472   1453   1456      1
  1473   1456   1457      1
  1474   1456   1458      1
  1475   1458   1459      1
  1476   1459   1460      1
  1477   1459   1461      1
  1478   1458   1462      1
  1479   1462   1463      1
  1480   1462   1464      1
  1481   1445   1465      1
  1482   1465   1466      1
  1483   1465   1467      1
  1484   1467   1468      1
  1485   1467   1469      1
  1486   1469   1470      1
  1487   1469   1471      1
  1488   1471   1472      1
  1489   1471   1473      1
  1490   1473   1474      1
  1491   1473   1475      1
  1492   1473   1476      1
  1493   1471   1477      1
  1494   1477   1478      1
  1495   1477   1479      1
  1496   1477   1480      1
  1497   1469   1481      1
  1498   1481   1482      1
  1499   1481   1483      1
  1500   1483   1484      1
  1501   1483   1485      1
  1502   1485   1486      1
  1503   1485   1487      1
  1504   1487   1488      1
  1505   1487   1489      1
  1506   1487   1490      1
  1507   1490   1491      1
  1508   1490   1492      1
  1509   1491   1493      1
  1510   1485   1494      1
  1511   1494   1495      1
  1512   1494   1496      1
  1513   1496   1497      1
  1514   1496   1498      1
  1515   1498   1499      1
  1516   1498   1500      1
  1517   1500   1501      1
  1518   1500   1502      1
  1519   1502   1503      1
  1520   1502   1504      1
  1521   1502   1505      1
  1522   1500   1506      1
  1523   1506   1507      1
  1524   1506   1508      1
  1525   1506   1509      1
  1526   1498   1510      1
  1527   1510   1511      1
  1528   1510   1512      1
  1529   1512   1513      1
  1530   1512   1514      1
  1531   1514   1515      1
  1532   1514   1516      1
  1533   1516   1517      1
  1534   1516   1518      1
  1535   1516   1519      1
  1536   1519   1520      1
  1537   1519   1521      1
  1538   1521   1522      1
  1539   1521   1523      1
  1540   1521   1524      1
  1541   1519   1525      1
  1542   1525   1526      1
  1543   1525   1527      1
  1544   1525   1528      1
  1545   1514   1529      1
  1546   1529   1530      1
  1547   1529   1531      1
  1548   1531   1532      1
  1549   1531   1533      1
  1550   1533   1534      1
  1551   1533   1535      1
  1552   1535   1536      1
  1553   1535   1537      1
  1554   1535   1538      1
  1555   1538   1539      1
  1556   1538   1540      1
  1557   1538   1541      1
  1558   1541   1542      1
  1559   1541   1543      1
  1560   1541   1544      1
  1561   1544   1545      1
  1562   1544   1546      1
  1563   1546   1547      1
  1564   1547   1548      1
  1565   1547   1549      1
  1566   1546   1550      1
  1567   1550   1551      1
  1568   1550   1552      1
  1569   1533   1553      1
  1570   1553   1554      1
  1571   1553   1555      1
  1572   1555   1556      1
  1573   1555   1557      1
  1574   1557   1558      1
  1575   1557   1559      1
  1576   1559   1560      1
  1577   1559   1561      1
  1578   1559   1562      1
  1579   1557   1563      1
  1580   1563   1564      1
  1581   1563   1565      1
  1582   1565   1566      1
  1583   1565   1567      1
  1584   1567   1568      1
  1585   1567   1569      1
  1586   1569   1570      1
  1587   1569   1571      1
  1588   1569   1572      1
  1589   1572   1573      1
  1590   1572   1574      1
  1591   1574   1575      1
  1592   1574   1576      1
  1593   1574   1577      1
  1594   1572   1578      1
  1595   1578   1579      1
  1596   1578   1580      1
  1597   1578   1581      1
  1598   1567   1582      1
  1599   1582   1583      1
  1600   1582   1584      1
  1601   1584   1585      1
  1602   1585   1586      1
  1603   1585   1587      1
  1604   1585   1588      1
  1605   1588   1589      1
  1606   1588   1590      1
  1607   1588   1591      1
  1608   1591   1592      1
  1609   1591   1593      1
  1610   1584   1594      1
  1611   1594   1595      1
  1612   1594   1596      1
  1613   1596   1597      1
  1614   1591   1594      1
  1615   1596   1598      1
  1616   1598   1599      1
  1617   1598   1600      1
  1618   1600   1601      1
  1619   1600   1602      1
  1620   1602   1603      1
  1621   1602   1604      1
  1622   1604   1605      1
  1623   1604   1606      1
  1624   1604   1607      1
  1625   1602   1608      1
  1626   1608   1609      1
  1627   1600   1610      1
  1628   1610   1611      1
  1629   1610   1612      1
  1630   1612   1613      1
  1631   1612   1614      1
  1632   1614   1615      1
  1633   1614   1616      1
  1634   1614   1617      1
  1635   1617   1618      1
  1636   1617   1619      1
  1637   1619   1620      1
  1638   1619   1621      1
  1639   1621   1622      1
  1640   1621   1623      1
  1641   1623   1624      1
  1642   1623   1625      1
  1643   1623   1626      1
  1644   1626   1627      1
  1645   1626   1628      1
  1646   1626   1629      1
  1647   1629   1630      1
  1648   1629   1631      1
  1649   1629   1632      1
  1650   1632   1633      1
  1651   1632   1634      1
  1652   1632   1635      1
  1653   1635   1636      1
  1654   1635   1637      1
  1655   1635   1638      1
  1656   1621   1639      1
  1657   1639   1640      1
  1658   1639   1641      1
  1659   1641   1642      1
  1660   1641   1643      1
  1661   1643   1644      1
  1662   1643   1645      1
  1663   1645   1646      1
  1664   1645   1647      1
  1665   1645   1648      1
  1666   1648   1649      1
  1667   1643   1650      1
  1668   1650   1651      1
  1669   1650   1652      1
  1670   1652   1653      1
  1671   1652   1654      1
  1672   1654   1655      1
  1673   1654   1656      1
  1674   1656   1657      1
  1675   1656   1658      1
  1676   1656   1659      1
  1677   1659   1660      1
  1678   1660   1661      1
  1679   1660   1662      1
  1680   1662   1663      1
  1681   1662   1664      1
  1682   1664   1665      1
  1683   1665   1666      1
  1684   1664   1667      1
  1685   1667   1668      1
  1686   1667   1669      1
  1687   1669   1670      1
  1688   1654   1671      1
  1689   1671   1672      1
  1690   1659   1669      1
  1691   1671   1673      1
  1692   1673   1674      1
  1693   1673   1675      1
  1694   1675   1676      1
  1695   1675   1677      1
  1696   1677   1678      1
  1697   1677   1679      1
  1698   1677   1680      1
  1699   1680   1681      1
  1700   1680   1682      1
  1701   1682   1683      1
  1702   1682   1684      1
  1703   1675   1685      1
  1704   1685   1686      1
  1705   1685   1687      1
  1706   1687   1688      1
  1707   1687   1689      1
  1708   1689   1690      1
  1709   1689   1691      1
  1710   1691   1692      1
  1711   1691   1693      1
  1712   1691   1694      1
  1713   1694   1695      1
  1714   1694   1696      1
  1715   1696   1697      1
  1716   1696   1698      1
  1717   1696   1699      1
  1718   1694   1700      1
  1719   1700   1701      1
  1720   1700   1702      1
  1721   1700   1703      1
  1722   1689   1704      1
  1723   1704   1705      1
  1724   1704   1706      1
  1725   1706   1707      1
  1726   1706   1708      1
  1727   1708   1709      1
  1728   1708   1710      1
  1729   1710   1711      1
  1730   1710   1712      1
  1731   1710   1713      1
  1732   1713   1714      1
  1733   1708   1715      1
  1734   1715   1716      1
  1735   1715   1717      1
  1736   1717   1718      1
  1737   1717   1719      1
  1738   1719   1720      1
  1739   1719   1721      1
  1740   1721   1722      1
  1741   1721   1723      1
  1742   1723   1724      1
  1743   1723   1725      1
  1744   1723   1726      1
  1745   1721   1727      1
  1746   1727   1728      1
  1747   1727   1729      1
  1748   1727   1730      1
  1749   1730   1731      1
  1750   1730   1732      1
  1751   1730   1733      1
  1752   1719   1734      1
  1753   1734   1735      1
  1754   1734   1736      1
  1755   1736   1737      1
  1756   1736   1738      1
  1757   1738   1739      1
  1758   1738   1740      1
  1759   1740   1741      1
  1760   1740   1742      1
  1761   1740   1743      1
  1762   1743   1744      1
  1763   1743   1745      1
  1764   1745   1746      1
  1765   1745   1747      1
  1766   1745   1748      1
  1767   1743   1749      1
  1768   1749   1750      1
  1769   1749   1751      1
  1770   1749   1752      1
  1771   1738   1753      1
  1772   1753   1754      1
  1773   1753   1755      1
  1774   1755   1756      1
  1775   1755   1757      1
  1776   1757   1758      1
  1777   1757   1759      1
  1778   1757   1760      1
  1779   1760   1761      1
  1780   1760   1762      1
  1781   1762   1763      1
  1782   1762   1764      1
  1783   1764   1765      1
  1784   1764   1766      1
  1785   1766   1767      1
  1786   1766   1768      1
  1787   1768   1769      1
  1788   1768   1770      1
  1789   1768   1771      1
  1790   1766   1772      1
  1791   1772   1773      1
  1792   1772   1774      1
  1793   1772   1775      1
  1794   1764   1776      1
  1795   1776   1777      1
  1796   1776   1778      1
  1797   1778   1779      1
  1798   1778   1780      1
  1799   1780   1781      1
  1800   1780   1782      1
  1801   1782   1783      1
  1802   1782   1784      1
  1803   1782   1785      1
  1804   1785   1786      1
  1805   1786   1787      1
  1806   1786   1788      1
  1807   1788   1789      1
  1808   1788   1790      1
  1809   1790   1791      1
  1810   1790   1792      1
  1811   1792   1793      1
  1812   1792   1794      1
  1813   1794   1795      1
  1814   1780   1796      1
  1815   1796   1797      1
  1816   1785   1794      1
  1817   1796   1798      1
  1818   1798   1799      1
  1819   1798   1800      1
  1820   1800   1801      1
  1821   1800   1802      1
  1822   1802   1803      1
  1823   1802   1804      1
  1824   1802   1805      1
  1825   1805   1806      1
  1826   1805   1807      1
  1827   1805   1808      1
  1828   1808   1809      1
  1829   1808   1810      1
  1830   1810   1811      1
  1831   1810   1812      1
  1832   1800   1813      1
  1833   1813   1814      1
  1834   1813   1815      1
  1835   1815   1816      1
  1836   1815   1817      1
  1837   1817   1818      1
  1838   1817   1819      1
  1839   1819   1820      1
  1840   1819   1821      1
  1841   1819   1822      1
  1842   1822   1823      1
  1843   1822   1824      1
  1844   1824   1825      1
  1845   1824   1826      1
  1846   1824   1827      1
  1847   1822   1828      1
  1848   1828   1829      1
  1849   1828   1830      1
  1850   1828   1831      1
  1851   1817   1832      1
  1852   1832   1833      1
  1853   1832   1834      1
  1854   1834   1835      1
  1855   1834   1836      1
  1856   1836   1837      1
  1857   1836   1838      1
  1858   1838   1839      1
  1859   1838   1840      1
  1860   1840   1841      1
  1861   1840   1842      1
  1862   1840   1843      1
  1863   1838   1844      1
  1864   1844   1845      1
  1865   1836   1846      1
  1866   1846   1847      1
  1867   1846   1848      1
  1868   1848   1849      1
  1869   1848   1850      1
  1870   1850   1851      1
  1871   1850   1852      1
  1872   1852   1853      1
  1873   1852   1854      1
  1874   1852   1855      1
  1875   1855   1856      1
  1876   1855   1857      1
  1877   1850   1858      1
  1878   1858   1859      1
  1879   1858   1860      1
  1880   1860   1861      1
  1881   1860   1862      1
  1882   1862   1863      1
  1883   1862   1864      1
  1884   1862   1865      1
  1885   1865   1866      1
  1886   1865   1867      1
  1887   1867   1868      1
  1888   1867   1869      1
  1889   1869   1870      1
  1890   1869   1871      1
  1891   1871   1872      1
  1892   1871   1873      1
  1893   1871   1874      1
  1894   1874   1875      1
  1895   1874   1876      1
  1896   1874   1877      1
  1897   1877   1878      1
  1898   1877   1879      1
  1899   1877   1880      1
  1900   1880   1881      1
  1901   1880   1882      1
  1902   1880   1883      1
  1903   1883   1884      1
  1904   1883   1885      1
  1905   1883   1886      1
  1906   1869   1887      1
  1907   1887   1888      1
  1908   1887   1889      1
  1909   1889   1890      1
  1910   1889   1891      1
  1911   1891   1892      1
  1912   1891   1893      1
  1913   1893   1894      1
  1914   1893   1895      1
  1915   1895   1896      1
  1916   1895   1897      1
  1917   1895   1898      1
  1918   1893   1899      1
  1919   1899   1900      1
  1920   1899   1901      1
  1921   1899   1902      1
  1922   1902   1903      1
  1923   1902   1904      1
  1924   1902   1905      1
  1925   1891   1906      1
  1926   1906   1907      1
  1927   1906   1908      1
  1928   1908   1909      1
  1929   1908   1910      1
  1930   1910   1911      1
  1931   1910   1912      1
  1932   1912   1913      1
  1933   1912   1914      1
  1934   1914   1915      1
  1935   1914   1916      1
  1936   1914   1917      1
  1937   1912   1918      1
  1938   1918   1919      1
  1939   1910   1920      1
  1940   1920   1921      1
  1941   1920   1922      1
  1942   1922   1923      1
  1943   1922   1924      1
  1944   1924   1925      1
  1945   1924   1926      1
  1946   1924   1927      1
  1947   1927   1928      1
  1948   1927   1929      1
  1949   1929   1930      1
  1950   1929   1931      1
  1951   1931   1932      1
  1952   1931   1933      1
  1953   1933   1934      1
  1954   1933   1935      1
  1955   1933   1936      1
  1956   1936   1937      1
  1957   1937   1938      1
  1958   1937   1939      1
  1959   1939   1940      1
  1960   1939   1941      1
  1961   1941   1942      1
  1962   1942   1943      1
  1963   1942   1944      1
  1964   1944   1945      1
  1965   1944   1946      1
  1966   1946   1947      1
  1967   1946   1948      1
  1968   1948   1949      1
  1969   1948   1950      1
  1970   1931   1951      1
  1971   1951   1952      1
  1972   1936   1950      1
  1973   1941   1950      1
  1974   1951   1953      1
  1975   1953   1954      1
  1976   1953   1955      1
  1977   1955   1956      1
  1978   1955   1957      1
  1979   1957   1958      1
  1980   1957   1959      1
  1981   1957   1960      1
  1982   1960   1961      1
  1983   1960   1962      1
  1984   1960   1963      1
  1985   1963   1964      1
  1986   1963   1965      1
  1987   1963   1966      1
  1988   1966   1967      1
  1989   1966   1968      1
  1990   1968   1969      1
  1991   1969   1970      1
  1992   1969   1971      1
  1993   1968   1972      1
  1994   1972   1973      1
  1995   1972   1974      1
  1996   1955   1975      1
  1997   1975   1976      1
  1998   1975   1977      1
  1999   1977   1978      1
  2000   1977   1979      1
  2001   1979   1980      1
  2002   1979   1981      1
  2003   1981   1982      1
  2004   1981   1983      1
  2005   1981   1984      1
  2006   1984   1985      1
  2007   1984   1986      1
  2008   1979   1987      1
  2009   1987   1988      1
  2010   1987   1989      1
  2011   1989   1990      1
  2012   1989   1991      1
  2013   1991   1992      1
  2014   1991   1993      1
  2015   1993   1994      1
  2016   1993   1995      1
  2017   1993   1996      1
  2018   1996   1997      1
  2019   1997   1998      1
  2020   1997   1999      1
  2021   1999   2000      1
  2022   1999   2001      1
  2023   2001   2002      1
  2024   2002   2003      1
  2025   2001   2004      1
  2026   2004   2005      1
  2027   2004   2006      1
  2028   2006   2007      1
  2029   1991   2008      1
  2030   2008   2009      1
  2031   1996   2006      1
  2032   2008   2010      1
  2033   2010   2011      1
  2034   2010   2012      1
  2035   2012   2013      1
  2036   2012   2014      1
  2037   2014   2015      1
  2038   2014   2016      1
  2039   2014   2017      1
  2040   2017   2018      1
  2041   2018   2019      1
  2042   2018   2020      1
  2043   2020   2021      1
  2044   2020   2022      1
  2045   2022   2023      1
  2046   2022   2024      1
  2047   2024   2025      1
  2048   2024   2026      1
  2049   2026   2027      1
  2050   2012   2028      1
  2051   2028   2029      1
  2052   2017   2026      1
  2053   2028   2030      1
  2054   2030   2031      1
  2055   2030   2032      1
  2056   2032   2033      1
  2057   2032   2034      1
  2058   2034   2035      1
  2059   2034   2036      1
  2060   2034   2037      1
  2061   2037   2038      1
  2062   2037   2039      1
  2063   2032   2040      1
  2064   2040   2041      1
  2065   2040   2042      1
  2066   2042   2043      1
  2067   2042   2044      1
  2068   2044   2045      1
  2069   2044   2046      1
  2070   2046   2047      1
  2071   2046   2048      1
  2072   2046   2049      1
  2073   2049   2050      1
  2074   2049   2051      1
  2075   2051   2052      1
  2076   2051   2053      1
  2077   2051   2054      1
  2078   2049   2055      1
  2079   2055   2056      1
  2080   2055   2057      1
  2081   2055   2058      1
  2082   2044   2059      1
  2083   2059   2060      1
  2084   2059   2061      1
  2085   2061   2062      1
  2086   2061   2063      1
  2087   2063   2064      1
  2088   2063   2065      1
  2089   2065   2066      1
  2090   2065   2067      1
  2091   2065   2068      1
  2092   2068   2069      1
  2093   2068   2070      1
  2094   2068   2071      1
  2095   2071   2072      1
  2096   2071   2073      1
  2097   2071   2074      1
  2098   2074   2075      1
  2099   2074   2076      1
  2100   2076   2077      1
  2101   2077   2078      1
  2102   2077   2079      1
  2103   2076   2080      1
  2104   2080   2081      1
  2105   2080   2082      1
  2106   2063   2083      1
  2107   2083   2084      1
  2108   2083   2085      1
  2109   2085   2086      1
  2110   2085   2087      1
  2111   2087   2088      1
  2112   2087   2089      1
  2113   2089   2090      1
  2114   2089   2091      1
  2115   2089   2092      1
  2116   2092   2093      1
  2117   2092   2094      1
  2118   2092   2095      1
  2119   2095   2096      1
  2120   2095   2097      1
  2121   2087   2098      1
  2122   2098   2099      1
  2123   2098   2100      1
  2124   2100   2101      1
  2125   2100   2102      1
  2126   2102   2103      1
  2127   2102   2104      1
  2128   2104   2105      1
  2129   2104   2106      1
  2130   2104   2107      1
  2131   2107   2108      1
  2132   2108   2109      1
  2133   2108   2110      1
  2134   2110   2111      1
  2135   2110   2112      1
  2136   2112   2113      1
  2137   2112   2114      1
  2138   2114   2115      1
  2139   2114   2116      1
  2140   2116   2117      1
  2141   2102   2118      1
  2142   2118   2119      1
  2143   2107   2116      1
  2144   2118   2120      1
  2145   2120   2121      1
  2146   2120   2122      1
  2147   2122   2123      1
  2148   2122   2124      1
  2149   2124   2125      1
  2150   2124   2126      1
  2151   2124   2127      1
  2152   2127   2128      1
  2153   2127   2129      1
  2154   2127   2130      1
  2155   2130   2131      1
  2156   2130   2132      1
  2157   2122   2133      1
  2158   2133   2134      1
  2159   2133   2135      1
  2160   2135   2136      1
  2161   2135   2137      1
  2162   2137   2138      1
  2163   2137   2139      1
  2164   2139   2140      1
  2165   2139   2141      1
  2166   2139   2142      1
  2167   2142   2143      1
  2168   2142   2144      1
  2169   2142   2145      1
  2170   2145   2146      1
  2171   2145   2147      1
  2172   2137   2148      1
  2173   2148   2149      1
  2174   2148   2150      1
  2175   2150   2151      1
  2176   2150   2152      1
  2177   2152   2153      1
  2178   2152   2154      1
  2179   2154   2155      1
  2180   2154   2156      1
  2181   2154   2157      1
  2182   2152   2158      1
  2183   2158   2159      1
  2184   2158   2160      1
  2185   2160   2161      1
  2186   2160   2162      1
  2187   2162   2163      1
  2188   2162   2164      1
  2189   2164   2165      1
  2190   2164   2166      1
  2191   2166   2167      1
  2192   2166   2168      1
  2193   2166   2169      1
  2194   2164   2170      1
  2195   2170   2171      1
  2196   2170   2172      1
  2197   2170   2173      1
  2198   2162   2174      1
  2199   2174   2175      1
  2200   2174   2176      1
  2201   2176   2177      1
  2202   2176   2178      1
  2203   2178   2179      1
  2204   2178   2180      1
  2205   2180   2181      1
  2206   2180   2182      1
  2207   2180   2183      1
  2208   2183   2184      1
  2209   2183   2185      1
  2210   2178   2186      1
  2211   2186   2187      1
  2212   2186   2188      1
  2213   2188   2189      1
  2214   2188   2190      1
  2215   2190   2191      1
  2216   2190   2192      1
  2217   2192   2193      1
  2218   2192   2194      1
  2219   2192   2195      1
  2220   2195   2196      1
  2221   2195   2197      1
  2222   2197   2198      1
  2223   2197   2199      1
  2224   2197   2200      1
  2225   2195   2201      1
  2226   2201   2202      1
  2227   2201   2203      1
  2228   2201   2204      1
  2229   2190   2205      1
  2230   2205   2206      1
  2231   2205   2207      1
  2232   2207   2208      1
  2233   2208   2209      1
  2234   2208   2210      1
  2235   2208   2211      1
  2236   2211   2212      1
  2237   2211   2213      1
  2238   2211   2214      1
  2239   2214   2215      1
  2240   2214   2216      1
  2241   2207   2217      1
  2242   2217   2218      1
  2243   2217   2219      1
  2244   2219   2220      1
  2245   2214   2217      1
  2246   2219   2221      1
  2247   2221   2222      1
  2248   2221   2223      1
  2249   2223   2224      1
  2250   2223   2225      1
  2251   2225   2226      1
  2252   2225   2227      1
  2253   2225   2228      1
  2254   2228   2229      1
  2255   2228   2230      1
  2256   2230   2231      1
  2257   2230   2232      1
  2258   2230   2233      1
  2259   2228   2234      1
  2260   2234   2235      1
  2261   2234   2236      1
  2262   2234   2237      1
  2263   2223   2238      1
  2264   2238   2239      1
  2265   2238   2240      1
  2266   2240   2241      1
  2267   2240   2242      1
  2268   2242   2243      1
  2269   2242   2244      1
  2270   2244   2245      1
  2271   2244   2246      1
  2272   2244   2247      1
  2273   2247   2248      1
  2274   2247   2249      1
  2275   2247   2250      1
  2276   2250   2251      1
  2277   2250   2252      1
  2278   2250   2253      1
  2279   2253   2254      1
  2280   2253   2255      1
  2281   2255   2256      1
  2282   2256   2257      1
  2283   2256   2258      1
  2284   2255   2259      1
  2285   2259   2260      1
  2286   2259   2261      1
  2287   2242   2262      1
  2288   2262   2263      1
  2289   2264   2265      1
  2290   2264   2266      1
  2291   2266   2267      1
  2292   2266   2268      1
  2293   2268   2269      1
  2294   2268   2270      1
  2295   2270   2271      1
  2296   2270   2272      1
  2297   2270   2273      1
  2298   2268   2274      1
  2299   2274   2275      1
  2300   2274   2276      1
  2301   2274   2277      1
  2302   2277   2278      1
  2303   2277   2279      1
  2304   2277   2280      1
  2305   2266   2281      1
  2306   2281   2282      1
  2307   2281   2283      1
  2308   2283   2284      1
  2309   2283   2285      1
  2310   2285   2286      1
  2311   2285   2287      1
  2312   2287   2288      1
  2313   2287   2289      1
  2314   2287   2290      1
  2315   2290   2291      1
  2316   2290   2292      1
  2317   2290   2293      1
  2318   2293   2294      1
  2319   2293   2295      1
  2320   2285   2296      1
  2321   2296   2297      1
  2322   2296   2298      1
  2323   2298   2299      1
  2324   2298   2300      1
  2325   2300   2301      1
  2326   2300   2302      1
  2327   2302   2303      1
  2328   2302   2304      1
  2329   2302   2305      1
  2330   2305   2306      1
  2331   2305   2307      1
  2332   2305   2308      1
  2333   2308   2309      1
  2334   2308   2310      1
  2335   2310   2311      1
  2336   2310   2312      1
  2337   2300   2313      1
  2338   2313   2314      1
  2339   2313   2315      1
  2340   2315   2316      1
  2341   2316   2317      1
  2342   2316   2318      1
  2343   2316   2319      1
  2344   2319   2320      1
  2345   2319   2321      1
  2346   2319   2322      1
  2347   2322   2323      1
  2348   2322   2324      1
  2349   2315   2325      1
  2350   2325   2326      1
  2351   2325   2327      1
  2352   2327   2328      1
  2353   2322   2325      1
  2354   2327   2329      1
  2355   2329   2330      1
  2356   2329   2331      1
  2357   2331   2332      1
  2358   2331   2333      1
  2359   2333   2334      1
  2360   2333   2335      1
  2361   2333   2336      1
  2362   2336   2337      1
  2363   2336   2338      1
  2364   2336   2339      1
  2365   2339   2340      1
  2366   2339   2341      1
  2367   2339   2342      1
  2368   2342   2343      1
  2369   2342   2344      1
  2370   2344   2345      1
  2371   2345   2346      1
  2372   2345   2347      1
  2373   2344   2348      1
  2374   2348   2349      1
  2375   2348   2350      1
  2376   2331   2351      1
  2377   2351   2352      1
  2378   2351   2353      1
  2379   2353   2354      1
  2380   2353   2355      1
  2381   2355   2356      1
  2382   2355   2357      1
  2383   2357   2358      1
  2384   2357   2359      1
  2385   2357   2360      1
  2386   2360   2361      1
  2387   2361   2362      1
  2388   2361   2363      1
  2389   2363   2364      1
  2390   2363   2365      1
  2391   2365   2366      1
  2392   2366   2367      1
  2393   2366   2368      1
  2394   2368   2369      1
  2395   2368   2370      1
  2396   2370   2371      1
  2397   2370   2372      1
  2398   2372   2373      1
  2399   2372   2374      1
  2400   2355   2375      1
  2401   2375   2376      1
  2402   2360   2374      1
  2403   2365   2374      1
  2404   2375   2377      1
  2405   2377   2378      1
  2406   2377   2379      1
  2407   2379   2380      1
  2408   2379   2381      1
  2409   2381   2382      1
  2410   2381   2383      1
  2411   2381   2384      1
  2412   2379   2385      1
  2413   2385   2386      1
  2414   2385   2387      1
  2415   2387   2388      1
  2416   2387   2389      1
  2417   2389   2390      1
  2418   2389   2391      1
  2419   2391   2392      1
  2420   2391   2393      1
  2421   2391   2394      1
  2422   2394   2395      1
  2423   2389   2396      1
  2424   2396   2397      1
  2425   2396   2398      1
  2426   2398   2399      1
  2427   2398   2400      1
  2428   2400   2401      1
  2429   2400   2402      1
  2430   2402   2403      1
  2431   2402   2404      1
  2432   2402   2405      1
  2433   2405   2406      1
  2434   2405   2407      1
  2435   2405   2408      1
  2436   2408   2409      1
  2437   2408   2410      1
  2438   2408   2411      1
  2439   2411   2412      1
  2440   2411   2413      1
  2441   2411   2414      1
  2442   2414   2415      1
  2443   2414   2416      1
  2444   2414   2417      1
  2445   2400   2418      1
  2446   2418   2419      1
  2447   2418   2420      1
  2448   2420   2421      1
  2449   2420   2422      1
  2450   2422   2423      1
  2451   2422   2424      1
  2452   2424   2425      1
  2453   2424   2426      1
  2454   2424   2427      1
  2455   2427   2428      1
  2456   2427   2429      1
  2457   2422   2430      1
  2458   2430   2431      1
  2459   2430   2432      1
  2460   2432   2433      1
  2461   2433   2434      1
  2462   2433   2435      1
  2463   2433   2436      1
  2464   2436   2437      1
  2465   2436   2438      1
  2466   2436   2439      1
  2467   2439   2440      1
  2468   2439   2441      1
  2469   2432   2442      1
  2470   2442   2443      1
  2471   2442   2444      1
  2472   2444   2445      1
  2473   2439   2442      1
  2474   2444   2446      1
  2475   2446   2447      1
  2476   2446   2448      1
  2477   2448   2449      1
  2478   2448   2450      1
  2479   2450   2451      1
  2480   2450   2452      1
  2481   2450   2453      1
  2482   2448   2454      1
  2483   2454   2455      1
  2484   2454   2456      1
  2485   2456   2457      1
  2486   2456   2458      1
  2487   2458   2459      1
  2488   2458   2460      1
  2489   2460   2461      1
  2490   2460   2462      1
  2491   2460   2463      1
  2492   2458   2464      1
  2493   2464   2465      1
  2494   2464   2466      1
  2495   2466   2467      1
  2496   2466   2468      1
  2497   2468   2469      1
  2498   2468   2470      1
  2499   2468   2471      1
  2500   2471   2472      1
  2501   2471   2473      1
  2502   2473   2474      1
  2503   2473   2475      1
  2504   2475   2476      1
  2505   2475   2477      1
  2506   2477   2478      1
  2507   2477   2479      1
  2508   2477   2480      1
  2509   2480   2481      1
  2510   2480   2482      1
  2511   2480   2483      1
  2512   2483   2484      1
  2513   2483   2485      1
  2514   2483   2486      1
  2515   2486   2487      1
  2516   2486   2488      1
  2517   2486   2489      1
  2518   2489   2490      1
  2519   2489   2491      1
  2520   2489   2492      1
  2521   2475   2493      1
  2522   2493   2494      1
  2523   2493   2495      1
  2524   2495   2496      1
  2525   2495   2497      1
  2526   2497   2498      1
  2527   2497   2499      1
  2528   2499   2500      1
  2529   2499   2501      1
  2530   2499   2502      1
  2531   2497   2503      1
  2532   2503   2504      1
  2533   2503   2505      1
  2534   2505   2506      1
  2535   2505   2507      1
  2536   2507   2508      1
  2537   2507   2509      1
  2538   2509   2510      1
  2539   2509   2511      1
  2540   2509   2512      1
  2541   2512   2513      1
  2542   2507   2514      1
  2543   2514   2515      1
  2544   2514   2516      1
  2545   2516   2517      1
  2546   2516   2518      1
  2547   2518   2519      1
  2548   2518   2520      1
  2549   2520   2521      1
  2550   2520   2522      1
  2551   2522   2523      1
  2552   2522   2524      1
  2553   2522   2525      1
  2554   2520   2526      1
  2555   2526   2527      1
  2556   2518   2528      1
  2557   2528   2529      1
  2558   2528   2530      1
  2559   2530   2531      1
  2560   2531   2532      1
  2561   2531   2533      1
  2562   2531   2534      1
  2563   2534   2535      1
  2564   2534   2536      1
  2565   2534   2537      1
  2566   2537   2538      1
  2567   2537   2539      1
  2568   2530   2540      1
  2569   2540   2541      1
  2570   2540   2542      1
  2571   2542   2543      1
  2572   2537   2540      1
  2573   2542   2544      1
  2574   2544   2545      1
  2575   2544   2546      1
  2576   2546   2547      1
  2577   2546   2548      1
  2578   2548   2549      1
  2579   2548   2550      1
  2580   2548   2551      1
  2581   2551   2552      1
  2582   2551   2553      1
  2583   2546   2554      1
  2584   2554   2555      1
  2585   2554   2556      1
  2586   2556   2557      1
  2587   2556   2558      1
  2588   2558   2559      1
  2589   2558   2560      1
  2590   2560   2561      1
  2591   2560   2562      1
  2592   2560   2563      1
  2593   2563   2564      1
  2594   2563   2565      1
  2595   2563   2566      1
  2596   2566   2567      1
  2597   2566   2568      1
  2598   2558   2569      1
  2599   2569   2570      1
  2600   2569   2571      1
  2601   2571   2572      1
  2602   2571   2573      1
  2603   2573   2574      1
  2604   2573   2575      1
  2605   2575   2576      1
  2606   2575   2577      1
  2607   2575   2578      1
  2608   2578   2579      1
  2609   2578   2580      1
  2610   2578   2581      1
  2611   2581   2582      1
  2612   2581   2583      1
  2613   2581   2584      1
  2614   2584   2585      1
  2615   2584   2586      1
  2616   2584   2587      1
  2617   2587   2588      1
  2618   2587   2589      1
  2619   2587   2590      1
  2620   2573   2591      1
  2621   2591   2592      1
  2622   2591   2593      1
  2623   2593   2594      1
  2624   2593   2595      1
  2625   2595   2596      1
  2626   2595   2597      1
  2627   2597   2598      1
  2628   2597   2599      1
  2629   2599   2600      1
  2630   2599   2601      1
  2631   2599   2602      1
  2632   2597   2603      1
  2633   2603   2604      1
  2634   2603   2605      1
  2635   2603   2606      1
  2636   2606   2607      1
  2637   2606   2608      1
  2638   2606   2609      1
  2639   2595   2610      1
  2640   2610   2611      1
  2641   2610   2612      1
  2642   2612   2613      1
  2643   2612   2614      1
  2644   2614   2615      1
  2645   2614   2616      1
  2646   2616   2617      1
  2647   2616   2618      1
  2648   2618   2619      1
  2649   2618   2620      1
  2650   2618   2621      1
  2651   2616   2622      1
  2652   2622   2623      1
  2653   2622   2624      1
  2654   2622   2625      1
  2655   2614   2626      1
  2656   2626   2627      1
  2657   2626   2628      1
  2658   2628   2629      1
  2659   2628   2630      1
  2660   2630   2631      1
  2661   2630   2632      1
  2662   2632   2633      1
  2663   2632   2634      1
  2664   2632   2635      1
  2665   2635   2636      1
  2666   2635   2637      1
  2667   2637   2638      1
  2668   2637   2639      1
  2669   2637   2640      1
  2670   2635   2641      1
  2671   2641   2642      1
  2672   2641   2643      1
  2673   2641   2644      1
  2674   2630   2645      1
  2675   2645   2646      1
  2676   2645   2647      1
  2677   2647   2648      1
  2678   2647   2649      1
  2679   2649   2650      1
  2680   2649   2651      1
  2681   2651   2652      1
  2682   2651   2653      1
  2683   2651   2654      1
  2684   2654   2655      1
  2685   2654   2656      1
  2686   2654   2657      1
  2687   2657   2658      1
  2688   2657   2659      1
  2689   2649   2660      1
  2690   2660   2661      1
  2691   2660   2662      1
  2692   2662   2663      1
  2693   2662   2664      1
  2694   2664   2665      1
  2695   2664   2666      1
  2696   2666   2667      1
  2697   2666   2668      1
  2698   2666   2669      1
  2699   2669   2670      1
  2700   2670   2671      1
  2701   2670   2672      1
  2702   2672   2673      1
  2703   2672   2674      1
  2704   2674   2675      1
  2705   2674   2676      1
  2706   2676   2677      1
  2707   2676   2678      1
  2708   2678   2679      1
  2709   2664   2680      1
  2710   2680   2681      1
  2711   2669   2678      1
  2712   2680   2682      1
  2713   2682   2683      1
  2714   2682   2684      1
  2715   2684   2685      1
  2716   2684   2686      1
  2717   2686   2687      1
  2718   2686   2688      1
  2719   2686   2689      1
  2720   2689   2690      1
  2721   2689   2691      1
  2722   2689   2692      1
  2723   2692   2693      1
  2724   2693   2694      1
  2725   2693   2695      1
  2726   2693   2696      1
  2727   2684   2697      1
  2728   2697   2698      1
  2729   2697   2699      1
  2730   2699   2700      1
  2731   2699   2701      1
  2732   2701   2702      1
  2733   2701   2703      1
  2734   2703   2704      1
  2735   2703   2705      1
  2736   2703   2706      1
  2737   2706   2707      1
  2738   2706   2708      1
  2739   2701   2709      1
  2740   2709   2710      1
  2741   2709   2711      1
  2742   2711   2712      1
  2743   2711   2713      1
  2744   2713   2714      1
  2745   2713   2715      1
  2746   2715   2716      1
  2747   2715   2717      1
  2748   2715   2718      1
  2749   2713   2719      1
  2750   2719   2720      1
  2751   2719   2721      1
  2752   2721   2722      1
  2753   2721   2723      1
  2754   2723   2724      1
  2755   2723   2725      1
  2756   2725   2726      1
  2757   2725   2727      1
  2758   2725   2728      1
  2759   2728   2729      1
  2760   2728   2730      1
  2761   2730   2731      1
  2762   2730   2732      1
  2763   2730   2733      1
  2764   2728   2734      1
  2765   2734   2735      1
  2766   2734   2736      1
  2767   2734   2737      1
  2768   2723   2738      1
  2769   2738   2739      1
  2770   2738   2740      1
  2771   2740   2741      1
  2772   2740   2742      1
  2773   2742   2743      1
  2774   2742   2744      1
  2775   2744   2745      1
  2776   2744   2746      1
  2777   2746   2747      1
  2778   2746   2748      1
  2779   2746   2749      1
  2780   2744   2750      1
  2781   2750   2751      1
  2782   2742   2752      1
  2783   2752   2753      1
  2784   2752   2754      1
  2785   2754   2755      1
  2786   2754   2756      1
  2787   2756   2757      1
  2788   2756   2758      1
  2789   2758   2759      1
  2790   2758   2760      1
  2791   2758   2761      1
  2792   2761   2762      1
  2793   2756   2763      1
  2794   2763   2764      1
  2795   2763   2765      1
  2796   2765   2766      1
  2797   2765   2767      1
  2798   2767   2768      1
  2799   2767   2769      1
  2800   2769   2770      1
  2801   2769   2771      1
  2802   2769   2772      1
  2803   2772   2773      1
  2804   2772   2774      1
  2805   2774   2775      1
  2806   2774   2776      1
  2807   2767   2777      1
  2808   2777   2778      1
  2809   2777   2779      1
  2810   2779   2780      1
  2811   2779   2781      1
  2812   2781   2782      1
  2813   2781   2783      1
  2814   2783   2784      1
  2815   2783   2785      1
  2816   2783   2786      1
  2817   2786   2787      1
  2818   2786   2788      1
  2819   2781   2789      1
  2820   2789   2790      1
  2821   2789   2791      1
  2822   2791   2792      1
  2823   2791   2793      1
  2824   2793   2794      1
  2825   2793   2795      1
  2826   2795   2796      1
  2827   2795   2797      1
  2828   2795   2798      1
  2829   2793   2799      1
  2830   2799   2800      1
  2831   2799   2801      1
  2832   2801   2802      1
  2833   2801   2803      1
  2834   2803   2804      1
  2835   2803   2805      1
  2836   2805   2806      1
  2837   2805   2807      1
  2838   2805   2808      1
  2839   2803   2809      1
  2840   2809   2810      1
  2841   2809   2811      1
  2842   2811   2812      1
  2843   2811   2813      1
  2844   2813   2814      1
  2845   2813   2815      1
  2846   2815   2816      1
  2847   2815   2817      1
  2848   2815   2818      1
  2849   2818   2819      1
  2850   2818   2820      1
  2851   2818   2821      1
  2852   2821   2822      1
  2853   2821   2823      1
  2854   2821   2824      1
  2855   2824   2825      1
  2856   2824   2826      1
  2857   2824   2827      1
  2858   2827   2828      1
  2859   2827   2829      1
  2860   2827   2830      1
  2861   2813   2831      1
  2862   2831   2832      1
  2863   2831   2833      1
  2864   2833   2834      1
  2865   2833   2835      1
  2866   2835   2836      1
  2867   2835   2837      1
  2868   2837   2838      1
  2869   2837   2839      1
  2870   2837   2840      1
  2871   2840   2841      1
  2872   2840   2842      1
  2873   2842   2843      1
  2874   2842   2844      1
  2875   2842   2845      1
  2876   2840   2846      1
  2877   2846   2847      1
  2878   2846   2848      1
  2879   2846   2849      1
  2880   2835   2850      1
  2881   2850   2851      1
  2882   2850   2852      1
  2883   2852   2853      1
  2884   2852   2854      1
  2885   2854   2855      1
  2886   2854   2856      1
  2887   2856   2857      1
  2888   2856   2858      1
  2889   2858   2859      1
  2890   2858   2860      1
  2891   2858   2861      1
  2892   2856   2862      1
  2893   2862   2863      1
  2894   2862   2864      1
  2895   2862   2865      1
  2896   2865   2866      1
  2897   2865   2867      1
  2898   2865   2868      1
  2899   2854   2869      1
  2900   2869   2870      1
  2901   2869   2871      1
  2902   2871   2872      1
  2903   2871   2873      1
  2904   2873   2874      1
  2905   2873   2875      1
  2906   2875   2876      1
  2907   2875   2877      1
  2908   2875   2878      1
  2909   2878   2879      1
  2910   2878   2880      1
  2911   2878   2881      1
  2912   2881   2882      1
  2913   2881   2883      1
  2914   2881   2884      1
  2915   2884   2885      1
  2916   2884   2886      1
  2917   2884   2887      1
  2918   2887   2888      1
  2919   2887   2889      1
  2920   2887   2890      1
  2921   2873   2891      1
  2922   2891   2892      1
  2923   2891   2893      1
  2924   2893   2894      1
  2925   2893   2895      1
  2926   2895   2896      1
  2927   2895   2897      1
  2928   2897   2898      1
  2929   2897   2899      1
  2930   2897   2900      1
  2931   2900   2901      1
  2932   2901   2902      1
  2933   2901   2903      1
  2934   2903   2904      1
  2935   2903   2905      1
  2936   2905   2906      1
  2937   2906   2907      1
  2938   2905   2908      1
  2939   2908   2909      1
  2940   2908   2910      1
  2941   2910   2911      1
  2942   2895   2912      1
  2943   2912   2913      1
  2944   2900   2910      1
  2945   2912   2914      1
  2946   2914   2915      1
  2947   2914   2916      1
  2948   2916   2917      1
  2949   2916   2918      1
  2950   2918   2919      1
  2951   2918   2920      1
  2952   2918   2921      1
  2953   2921   2922      1
  2954   2922   2923      1
  2955   2922   2924      1
  2956   2924   2925      1
  2957   2924   2926      1
  2958   2926   2927      1
  2959   2926   2928      1
  2960   2928   2929      1
  2961   2928   2930      1
  2962   2930   2931      1
  2963   2916   2932      1
  2964   2932   2933      1
  2965   2921   2930      1
  2966   2932   2934      1
  2967   2934   2935      1
  2968   2934   2936      1
  2969   2936   2937      1
  2970   2936   2938      1
  2971   2938   2939      1
  2972   2938   2940      1
  2973   2938   2941      1
  2974   2936   2942      1
  2975   2942   2943      1
  2976   2942   2944      1
  2977   2944   2945      1
  2978   2944   2946      1
  2979   2946   2947      1
  2980   2946   2948      1
  2981   2948   2949      1
  2982   2948   2950      1
  2983   2948   2951      1
  2984   2951   2952      1
  2985   2951   2953      1
  2986   2951   2954      1
  2987   2954   2955      1
  2988   2954   2956      1
  2989   2946   2957      1
  2990   2957   2958      1
  2991   2957   2959      1
  2992   2959   2960      1
  2993   2959   2961      1
  2994   2961   2962      1
  2995   2961   2963      1
  2996   2963   2964      1
  2997   2963   2965      1
  2998   2963   2966      1
  2999   2966   2967      1
  3000   2966   2968      1
  3001   2961   2969      1
  3002   2969   2970      1
  3003   2969   2971      1
  3004   2971   2972      1
  3005   2971   2973      1
  3006   2973   2974      1
  3007   2973   2975      1
  3008   2975   2976      1
  3009   2975   2977      1
  3010   2977   2978      1
  3011   2977   2979      1
  3012   2977   2980      1
  3013   2975   2981      1
  3014   2981   2982      1
  3015   2973   2983      1
  3016   2983   2984      1
  3017   2983   2985      1
  3018   2985   2986      1
  3019   2985   2987      1
  3020   2987   2988      1
  3021   2987   2989      1
  3022   2989   2990      1
  3023   2989   2991      1
  3024   2989   2992      1
  3025   2992   2993      1
  3026   2992   2994      1
  3027   2992   2995      1
  3028   2995   2996      1
  3029   2996   2997      1
  3030   2996   2998      1
  3031   2996   2999      1
  3032   2987   3000      1
  3033   3000   3001      1
  3034   3000   3002      1
  3035   3002   3003      1
  3036   3002   3004      1
  3037   3004   3005      1
  3038   3004   3006      1
  3039   3006   3007      1
  3040   3006   3008      1
  3041   3006   3009      1
  3042   3009   3010      1
  3043   3010   3011      1
  3044   3010   3012      1
  3045   3012   3013      1
  3046   3012   3014      1
  3047   3014   3015      1
  3048   3015   3016      1
  3049   3014   3017      1
  3050   3017   3018      1
  3051   3017   3019      1
  3052   3019   3020      1
  3053   3004   3021      1
  3054   3021   3022      1
  3055   3009   3019      1
  3056   3021   3023      1
  3057   3023   3024      1
  3058   3023   3025      1
  3059   3025   3026      1
  3060   3025   3027      1
  3061   3027   3028      1
  3062   3027   3029      1
  3063   3027   3030      1
  3064   3030   3031      1
  3065   3030   3032      1
  3066   3030   3033      1
  3067   3033   3034      1
  3068   3033   3035      1
  3069   3035   3036      1
  3070   3035   3037      1
  3071   3025   3038      1
  3072   3038   3039      1
  3073   3038   3040      1
  3074   3040   3041      1
  3075   3040   3042      1
  3076   3042   3043      1
  3077   3042   3044      1
  3078   3044   3045      1
  3079   3044   3046      1
  3080   3044   3047      1
  3081   3047   3048      1
  3082   3047   3049      1
  3083   3049   3050      1
  3084   3049   3051      1
  3085   3042   3052      1
  3086   3052   3053      1
  3087   3052   3054      1
  3088   3054   3055      1
  3089   3054   3056      1
  3090   3056   3057      1
  3091   3056   3058      1
  3092   3058   3059      1
  3093   3058   3060      1
  3094   3058   3061      1
  3095   3061   3062      1
  3096   3061   3063      1
  3097   3061   3064      1
  3098   3064   3065      1
  3099   3065   3066      1
  3100   3065   3067      1
  3101   3065   3068      1
  3102   3056   3069      1
  3103   3069   3070      1
  3104   3069   3071      1
  3105   3071   3072      1
  3106   3072   3073      1
  3107   3072   3074      1
  3108   3072   3075      1
  3109   3075   3076      1
  3110   3075   3077      1
  3111   3075   3078      1
  3112   3078   3079      1
  3113   3078   3080      1
  3114   3071   3081      1
  3115   3081   3082      1
  3116   3081   3083      1
  3117   3083   3084      1
  3118   3078   3081      1
  3119   3083   3085      1
  3120   3085   3086      1
  3121   3085   3087      1
  3122   3087   3088      1
  3123   3087   3089      1
  3124   3089   3090      1
  3125   3089   3091      1
  3126   3089   3092      1
  3127   3092   3093      1
  3128   3092   3094      1
  3129   3094   3095      1
  3130   3094   3096      1
  3131   3094   3097      1
  3132   3092   3098      1
  3133   3098   3099      1
  3134   3098   3100      1
  3135   3098   3101      1
  3136   3087   3102      1
  3137   3102   3103      1
  3138   3102   3104      1
  3139   3104   3105      1
  3140   3105   3106      1
  3141   3105   3107      1
  3142   3105   3108      1
  3143   3108   3109      1
  3144   3108   3110      1
  3145   3108   3111      1
  3146   3111   3112      1
  3147   3111   3113      1
  3148   3104   3114      1
  3149   3114   3115      1
  3150   3114   3116      1
  3151   3116   3117      1
  3152   3111   3114      1
  3153   3116   3118      1
  3154   3118   3119      1
  3155   3119   3120      1
  3156   3119   3121      1
  3157   3119   3122      1
  3158   3122   3123      1
  3159   3122   3124      1
  3160   3122   3125      1
  3161   3125   3126      1
  3162   3125   3127      1
  3163   3118   3128      1
  3164   3128   3129      1
  3165   3128   3130      1
  3166   3130   3131      1
  3167   3125   3128      1
  3168   3130   3132      1
  3169   3132   3133      1
  3170   3132   3134      1
  3171   3134   3135      1
  3172   3134   3136      1
  3173   3136   3137      1
  3174   3136   3138      1
  3175   3136   3139      1
  3176   3134   3140      1
  3177   3140   3141      1
  3178   3140   3142      1
  3179   3142   3143      1
  3180   3142   3144      1
  3181   3144   3145      1
  3182   3144   3146      1
  3183   3146   3147      1
  3184   3146   3148      1
  3185   3146   3149      1
  3186   3149   3150      1
  3187   3150   3151      1
  3188   3150   3152      1
  3189   3152   3153      1
  3190   3152   3154      1
  3191   3154   3155      1
  3192   3155   3156      1
  3193   3154   3157      1
  3194   3157   3158      1
  3195   3157   3159      1
  3196   3159   3160      1
  3197   3144   3161      1
  3198   3161   3162      1
  3199   3149   3159      1
  3200   3161   3163      1
  3201   3163   3164      1
  3202   3163   3165      1
  3203   3165   3166      1
  3204   3165   3167      1
  3205   3165   3168      1
  3206   3168   3169      1
  3207   3168   3170      1
  3208   3170   3171      1
  3209   3170   3172      1
  3210   3172   3173      1
  3211   3172   3174      1
  3212   3174   3175      1
  3213   3174   3176      1
  3214   3174   3177      1
  3215   3177   3178      1
  3216   3177   3179      1
  3217   3177   3180      1
  3218   3180   3181      1
  3219   3180   3182      1
  3220   3180   3183      1
  3221   3183   3184      1
  3222   3183   3185      1
  3223   3185   3186      1
  3224   3186   3187      1
  3225   3186   3188      1
  3226   3185   3189      1
  3227   3189   3190      1
  3228   3189   3191      1
  3229   3172   3192      1
  3230   3192   3193      1
  3231   3192   3194      1
  3232   3194   3195      1
  3233   3194   3196      1
  3234   3196   3197      1
  3235   3196   3198      1
  3236   3198   3199      1
  3237   3198   3200      1
  3238   3198   3201      1
  3239   3201   3202      1
  3240   3201   3203      1
  3241   3196   3204      1
  3242   3204   3205      1
  3243   3204   3206      1
  3244   3206   3207      1
  3245   3206   3208      1
  3246   3208   3209      1
  3247   3208   3210      1
  3248   3210   3211      1
  3249   3210   3212      1
  3250   3210   3213      1
  3251   3208   3214      1
  3252   3214   3215      1
  3253   3214   3216      1
  3254   3216   3217      1
  3255   3216   3218      1
  3256   3218   3219      1
  3257   3218   3220      1
  3258   3220   3221      1
  3259   3220   3222      1
  3260   3222   3223      1
  3261   3222   3224      1
  3262   3222   3225      1
  3263   3220   3226      1
  3264   3226   3227      1
  3265   3226   3228      1
  3266   3226   3229      1
  3267   3218   3230      1
  3268   3230   3231      1
  3269   3230   3232      1
  3270   3232   3233      1
  3271   3232   3234      1
  3272   3234   3235      1
  3273   3234   3236      1
  3274   3236   3237      1
  3275   3236   3238      1
  3276   3236   3239      1
  3277   3239   3240      1
  3278   3239   3241      1
  3279   3239   3242      1
  3280   3242   3243      1
  3281   3242   3244      1
  3282   3234   3245      1
  3283   3245   3246      1
  3284   3245   3247      1
  3285   3247   3248      1
  3286   3247   3249      1
  3287   3249   3250      1
  3288   3249   3251      1
  3289   3251   3252      1
  3290   3251   3253      1
  3291   3251   3254      1
  3292   3254   3255      1
  3293   3254   3256      1
  3294   3254   3257      1
  3295   3257   3258      1
  3296   3257   3259      1
  3297   3259   3260      1
  3298   3259   3261      1
  3299   3249   3262      1
  3300   3262   3263      1
  3301   3262   3264      1
  3302   3264   3265      1
  3303   3264   3266      1
  3304   3266   3267      1
  3305   3266   3268      1
  3306   3268   3269      1
  3307   3268   3270      1
  3308   3270   3271      1
  3309   3270   3272      1
  3310   3270   3273      1
  3311   3268   3274      1
  3312   3274   3275      1
  3313   3266   3276      1
  3314   3276   3277      1
  3315   3276   3278      1
  3316   3278   3279      1
  3317   3278   3280      1
  3318   3280   3281      1
  3319   3280   3282      1
  3320   3282   3283      1
  3321   3282   3284      1
  3322   3282   3285      1
  3323   3285   3286      1
  3324   3285   3287      1
  3325   3287   3288      1
  3326   3287   3289      1
  3327   3287   3290      1
  3328   3285   3291      1
  3329   3291   3292      1
  3330   3291   3293      1
  3331   3291   3294      1
  3332   3280   3295      1
  3333   3295   3296      1
  3334   3295   3297      1
  3335   3297   3298      1
  3336   3297   3299      1
  3337   3299   3300      1
  3338   3299   3301      1
  3339   3301   3302      1
  3340   3301   3303      1
  3341   3301   3304      1
  3342   3299   3305      1
  3343   3305   3306      1
  3344   3305   3307      1
  3345   3307   3308      1
  3346   3307   3309      1
  3347   3309   3310      1
  3348   3309   3311      1
  3349   3309   3312      1
  3350   3312   3313      1
  3351   3312   3314      1
  3352   3314   3315      1
  3353   3314   3316      1
  3354   3316   3317      1
  3355   3316   3318      1
  3356   3318   3319      1
  3357   3318   3320      1
  3358   3318   3321      1
  3359   3321   3322      1
  3360   3321   3323      1
  3361   3323   3324      1
  3362   3323   3325      1
  3363   3323   3326      1
  3364   3321   3327      1
  3365   3327   3328      1
  3366   3327   3329      1
  3367   3327   3330      1
  3368   3316   3331      1
  3369   3331   3332      1
  3370   3331   3333      1
  3371   3333   3334      1
  3372   3333   3335      1
  3373   3335   3336      1
  3374   3335   3337      1
  3375   3337   3338      1
  3376   3337   3339      1
  3377   3337   3340      1
  3378   3340   3341      1
  3379   3341   3342      1
  3380   3341   3343      1
  3381   3343   3344      1
  3382   3343   3345      1
  3383   3345   3346      1
  3384   3345   3347      1
  3385   3347   3348      1
  3386   3347   3349      1
  3387   3349   3350      1
  3388   3335   3351      1
  3389   3351   3352      1
  3390   3340   3349      1
  3391   3351   3353      1
  3392   3353   3354      1
  3393   3353   3355      1
  3394   3355   3356      1
  3395   3355   3357      1
  3396   3357   3358      1
  3397   3357   3359      1
  3398   3357   3360      1
  3399   3360   3361      1
  3400   3360   3362      1
  3401   3360   3363      1
  3402   3363   3364      1
  3403   3363   3365      1
  3404   3363   3366      1
  3405   3366   3367      1
  3406   3366   3368      1
  3407   3366   3369      1
  3408   3369   3370      1
  3409   3369   3371      1
  3410   3369   3372      1
  3411   3355   3373      1
  3412   3373   3374      1
  3413   3373   3375      1
  3414   3375   3376      1
  3415   3375   3377      1
  3416   3377   3378      1
  3417   3377   3379      1
  3418   3379   3380      1
  3419   3379   3381      1
  3420   3381   3382      1
  3421   3381   3383      1
  3422   3381   3384      1
  3423   3379   3385      1
  3424   3385   3386      1
  3425   3385   3387      1
  3426   3385   3388      1
  3427   3377   3389      1
  3428   3389   3390      1
  3429   3389   3391      1
  3430   3391   3392      1
  3431   3391   3393      1
  3432   3393   3394      1
  3433   3393   3395      1
  3434   3395   3396      1
  3435   3395   3397      1
  3436   3395   3398      1
  3437   3398   3399      1
  3438   3398   3400      1
  3439   3398   3401      1
  3440   3401   3402      1
  3441   3402   3403      1
  3442   3402   3404      1
  3443   3402   3405      1
  3444   3393   3406      1
  3445   3406   3407      1
  3446   3406   3408      1
  3447   3408   3409      1
  3448   3408   3410      1
  3449   3410   3411      1
  3450   3410   3412      1
  3451   3412   3413      1
  3452   3412   3414      1
  3453   3412   3415      1
  3454   3415   3416      1
  3455   3410   3417      1
  3456   3417   3418      1
  3457   3417   3419      1
  3458   3419   3420      1
  3459   3419   3421      1
  3460   3421   3422      1
  3461   3421   3423      1
  3462   3423   3424      1
  3463   3423   3425      1
  3464   3425   3426      1
  3465   3425   3427      1
  3466   3425   3428      1
  3467   3423   3429      1
  3468   3429   3430      1
  3469   3429   3431      1
  3470   3429   3432      1
  3471   3432   3433      1
  3472   3432   3434      1
  3473   3432   3435      1
  3474   3421   3436      1
  3475   3436   3437      1
  3476   3436   3438      1
  3477   3438   3439      1
  3478   3438   3440      1
  3479   3440   3441      1
  3480   3440   3442      1
  3481   3442   3443      1
  3482   3442   3444      1
  3483   3442   3445      1
  3484   3445   3446      1
  3485   3445   3447      1
  3486   3440   3448      1
  3487   3448   3449      1
  3488   3448   3450      1
  3489   3450   3451      1
  3490   3450   3452      1
  3491   3452   3453      1
  3492   3452   3454      1
  3493   3454   3455      1
  3494   3454   3456      1
  3495   3454   3457      1
  3496   3452   3458      1
  3497   3458   3459      1
  3498   3458   3460      1
  3499   3460   3461      1
  3500   3460   3462      1
  3501   3462   3463      1
  3502   3462   3464      1
  3503   3464   3465      1
  3504   3464   3466      1
  3505   3466   3467      1
  3506   3466   3468      1
  3507   3466   3469      1
  3508   3464   3470      1
  3509   3470   3471      1
  3510   3470   3472      1
  3511   3470   3473      1
  3512   3462   3474      1
  3513   3474   3475      1
  3514   3474   3476      1
  3515   3476   3477      1
  3516   3476   3478      1
  3517   3478   3479      1
  3518   3478   3480      1
  3519   3480   3481      1
  3520   3480   3482      1
  3521   3480   3483      1
  3522   3483   3484      1
  3523   3483   3485      1
  3524   3483   3486      1
  3525   3486   3487      1
  3526   3486   3488      1
  3527   3478   3489      1
  3528   3489   3490      1
  3529   3489   3491      1
  3530   3491   3492      1
  3531   3491   3493      1
  3532   3493   3494      1
  3533   3493   3495      1
  3534   3495   3496      1
  3535   3495   3497      1
  3536   3497   3498      1
  3537   3497   3499      1
  3538   3497   3500      1
  3539   3495   3501      1
  3540   3501   3502      1
  3541   3501   3503      1
  3542   3501   3504      1
  3543   3493   3505      1
  3544   3505   3506      1
  3545   3505   3507      1
  3546   3507   3508      1
  3547   3507   3509      1
  3548   3509   3510      1
  3549   3509   3511      1
  3550   3511   3512      1
  3551   3511   3513      1
  3552   3511   3514      1
  3553   3514   3515      1
  3554   3515   3516      1
  3555   3515   3517      1
  3556   3517   3518      1
  3557   3517   3519      1
  3558   3519   3520      1
  3559   3519   3521      1
  3560   3521   3522      1
  3561   3521   3523      1
  3562   3523   3524      1
  3563   3509   3525      1
  3564   3525   3526      1
  3565   3514   3523      1
  3566   3525   3527      1
  3567   3527   3528      1
  3568   3527   3529      1
  3569   3529   3530      1
  3570   3529   3531      1
  3571   3531   3532      1
  3572   3531   3533      1
  3573   3531   3534      1
  3574   3534   3535      1
  3575   3535   3536      1
  3576   3535   3537      1
  3577   3537   3538      1
  3578   3537   3539      1
  3579   3539   3540      1
  3580   3539   3541      1
  3581   3541   3542      1
  3582   3529   3543      1
  3583   3543   3544      1
  3584   3534   3541      1
  3585   3543   3545      1
  3586   3545   3546      1
  3587   3545   3547      1
  3588   3547   3548      1
  3589   3547   3549      1
  3590   3549   3550      1
  3591   3549   3551      1
  3592   3551   3552      1
  3593   3551   3553      1
  3594   3551   3554      1
  3595   3549   3555      1
  3596   3555   3556      1
  3597   3555   3557      1
  3598   3555   3558      1
  3599   3558   3559      1
  3600   3558   3560      1
  3601   3558   3561      1
  3602   3547   3562      1
  3603   3562   3563      1
  3604   3562   3564      1
  3605   3564   3565      1
  3606   3564   3566      1
  3607   3566   3567      1
  3608   3566   3568      1
  3609   3566   3569      1
  3610   3569   3570      1
  3611   3569   3571      1
  3612   3571   3572      1
  3613   3571   3573      1
  3614   3573   3574      1
  3615   3573   3575      1
  3616   3575   3576      1
  3617   3575   3577      1
  3618   3575   3578      1
  3619   3578   3579      1
  3620   3573   3580      1
  3621   3580   3581      1
  3622   3580   3582      1
  3623   3582   3583      1
  3624   3582   3584      1
  3625   3584   3585      1
  3626   3584   3586      1
  3627   3586   3587      1
  3628   3586   3588      1
  3629   3586   3589      1
  3630   3589   3590      1
  3631   3584   3591      1
  3632   3591   3592      1
  3633   3591   3593      1
  3634   3593   3594      1
  3635   3593   3595      1
  3636   3595   3596      1
  3637   3595   3597      1
  3638   3597   3598      1
  3639   3597   3599      1
  3640   3597   3600      1
  3641   3600   3601      1
  3642   3600   3602      1
  3643   3600   3603      1
  3644   3603   3604      1
  3645   3603   3605      1
  3646   3603   3606      1
  3647   3606   3607      1
  3648   3606   3608      1
  3649   3606   3609      1
  3650   3609   3610      1
  3651   3609   3611      1
  3652   3609   3612      1
  3653   3595   3613      1
  3654   3613   3614      1
  3655   3613   3615      1
  3656   3615   3616      1
  3657   3615   3617      1
  3658   3617   3618      1
  3659   3617   3619      1
  3660   3617   3620      1
  3661   3620   3621      1
  3662   3620   3622      1
  3663   3622   3623      1
  3664   3622   3624      1
  3665   3624   3625      1
  3666   3624   3626      1
  3667   3626   3627      1
  3668   3626   3628      1
  3669   3626   3629      1
  3670   3629   3630      1
  3671   3629   3631      1
  3672   3631   3632      1
  3673   3631   3633      1
  3674   3631   3634      1
  3675   3629   3635      1
  3676   3635   3636      1
  3677   3635   3637      1
  3678   3635   3638      1
  3679   3624   3639      1
  3680   3639   3640      1
  3681   3639   3641      1
  3682   3641   3642      1
  3683   3641   3643      1
  3684   3643   3644      1
  3685   3643   3645      1
  3686   3645   3646      1
  3687   3645   3647      1
  3688   3647   3648      1
  3689   3647   3649      1
  3690   3647   3650      1
  3691   3645   3651      1
  3692   3651   3652      1
  3693   3651   3653      1
  3694   3651   3654      1
  3695   3643   3655      1
  3696   3655   3656      1
  3697   3655   3657      1
  3698   3657   3658      1
  3699   3657   3659      1
  3700   3659   3660      1
  3701   3659   3661      1
  3702   3661   3662      1
  3703   3661   3663      1
  3704   3661   3664      1
  3705   3664   3665      1
  3706   3665   3666      1
  3707   3665   3667      1
  3708   3667   3668      1
  3709   3667   3669      1
  3710   3669   3670      1
  3711   3669   3671      1
  3712   3671   3672      1
  3713   3671   3673      1
  3714   3673   3674      1
  3715   3659   3675      1
  3716   3675   3676      1
  3717   3664   3673      1
  3718   3675   3677      1
  3719   3677   3678      1
  3720   3677   3679      1
  3721   3679   3680      1
  3722   3679   3681      1
  3723   3681   3682      1
  3724   3681   3683      1
  3725   3683   3684      1
  3726   3683   3685      1
  3727   3683   3686      1
  3728   3681   3687      1
  3729   3687   3688      1
  3730   3679   3689      1
  3731   3689   3690      1
  3732   3689   3691      1
  3733   3691   3692      1
  3734   3691   3693      1
  3735   3693   3694      1
  3736   3693   3695      1
  3737   3695   3696      1
  3738   3695   3697      1
  3739   3695   3698      1
  3740   3698   3699      1
  3741   3698   3700      1
  3742   3698   3701      1
  3743   3701   3702      1
  3744   3701   3703      1
  3745   3693   3704      1
  3746   3704   3705      1
  3747   3704   3706      1
  3748   3706   3707      1
  3749   3706   3708      1
  3750   3708   3709      1
  3751   3708   3710      1
  3752   3710   3711      1
  3753   3710   3712      1
  3754   3710   3713      1
  3755   3713   3714      1
  3756   3713   3715      1
  3757   3713   3716      1
  3758   3716   3717      1
  3759   3716   3718      1
  3760   3716   3719      1
  3761   3719   3720      1
  3762   3719   3721      1
  3763   3721   3722      1
  3764   3722   3723      1
  3765   3722   3724      1
  3766   3721   3725      1
  3767   3725   3726      1
  3768   3725   3727      1
  3769   3708   3728      1
  3770   3728   3729      1
  3771   3728   3730      1
  3772   3730   3731      1
  3773   3730   3732      1
  3774   3732   3733      1
  3775   3732   3734      1
  3776   3734   3735      1
  3777   3734   3736      1
  3778   3736   3737      1
  3779   3736   3738      1
  3780   3736   3739      1
  3781   3734   3740      1
  3782   3740   3741      1
  3783   3740   3742      1
  3784   3740   3743      1
  3785   3732   3744      1
  3786   3744   3745      1
  3787   3744   3746      1
  3788   3746   3747      1
  3789   3746   3748      1
  3790   3748   3749      1
  3791   3748   3750      1
  3792   3750   3751      1
  3793   3750   3752      1
  3794   3750   3753      1
  3795   3753   3754      1
  3796   3753   3755      1
  3797   3754   3756      1
  3798   3748   3757      1
  3799   3757   3758      1
  3800   3757   3759      1
  3801   3759   3760      1
  3802   3759   3761      1
  3803   3761   3762      1
  3804   3761   3763      1
  3805   3763   3764      1
  3806   3763   3765      1
  3807   3765   3766      1
  3808   3765   3767      1
  3809   3765   3768      1
  3810   3763   3769      1
  3811   3769   3770      1
  3812   3769   3771      1
  3813   3769   3772      1
  3814   3761   3773      1
  3815   3773   3774      1
  3816   3773   3775      1
  3817   3775   3776      1
  3818   3775   3777      1
  3819   3777   3778      1
  3820   3777   3779      1
  3821   3779   3780      1
  3822   3779   3781      1
  3823   3779   3782      1
  3824   3782   3783      1
  3825   3782   3784      1
  3826   3784   3785      1
  3827   3784   3786      1
  3828   3784   3787      1
  3829   3782   3788      1
  3830   3788   3789      1
  3831   3788   3790      1
  3832   3788   3791      1
  3833   3777   3792      1
  3834   3792   3793      1
  3835   3792   3794      1
  3836   3794   3795      1
  3837   3794   3796      1
  3838   3796   3797      1
  3839   3796   3798      1
  3840   3798   3799      1
  3841   3798   3800      1
  3842   3798   3801      1
  3843   3801   3802      1
  3844   3801   3803      1
  3845   3801   3804      1
  3846   3804   3805      1
  3847   3804   3806      1
  3848   3804   3807      1
  3849   3807   3808      1
  3850   3807   3809      1
  3851   3809   3810      1
  3852   3810   3811      1
  3853   3810   3812      1
  3854   3809   3813      1
  3855   3813   3814      1
  3856   3813   3815      1
  3857   3796   3816      1
  3858   3816   3817      1
  3859   3816   3818      1
  3860   3818   3819      1
  3861   3818   3820      1
  3862   3820   3821      1
  3863   3820   3822      1
  3864   3822   3823      1
  3865   3822   3824      1
  3866   3822   3825      1
  3867   3820   3826      1
  3868   3826   3827      1
  3869   3826   3828      1
  3870   3828   3829      1
  3871   3828   3830      1
  3872   3830   3831      1
  3873   3830   3832      1
  3874   3832   3833      1
  3875   3832   3834      1
  3876   3832   3835      1
  3877   3835   3836      1
  3878   3835   3837      1
  3879   3837   3838      1
  3880   3837   3839      1
  3881   3837   3840      1
  3882   3835   3841      1
  3883   3841   3842      1
  3884   3841   3843      1
  3885   3841   3844      1
  3886   3830   3845      1
  3887   3845   3846      1
  3888   3845   3847      1
  3889   3847   3848      1
  3890   3848   3849      1
  3891   3848   3850      1
  3892   3848   3851      1
  3893   3851   3852      1
  3894   3851   3853      1
  3895   3851   3854      1
  3896   3854   3855      1
  3897   3854   3856      1
  3898   3847   3857      1
  3899   3857   3858      1
  3900   3857   3859      1
  3901   3859   3860      1
  3902   3854   3857      1
  3903   3859   3861      1
  3904   3861   3862      1
  3905   3861   3863      1
  3906   3863   3864      1
  3907   3863   3865      1
  3908   3865   3866      1
  3909   3865   3867      1
  3910   3867   3868      1
  3911   3867   3869      1
  3912   3867   3870      1
  3913   3865   3871      1
  3914   3871   3872      1
  3915   3863   3873      1
  3916   3873   3874      1
  3917   3873   3875      1
  3918   3875   3876      1
  3919   3875   3877      1
  3920   3877   3878      1
  3921   3877   3879      1
  3922   3877   3880      1
  3923   3880   3881      1
  3924   3880   3882      1
  3925   3882   3883      1
  3926   3882   3884      1
  3927   3884   3885      1
  3928   3884   3886      1
  3929   3886   3887      1
  3930   3886   3888      1
  3931   3886   3889      1
  3932   3889   3890      1
  3933   3889   3891      1
  3934   3889   3892      1
  3935   3892   3893      1
  3936   3892   3894      1
  3937   3892   3895      1
  3938   3895   3896      1
  3939   3895   3897      1
  3940   3895   3898      1
  3941   3898   3899      1
  3942   3898   3900      1
  3943   3898   3901      1
  3944   3884   3902      1
  3945   3902   3903      1
  3946   3902   3904      1
  3947   3904   3905      1
  3948   3904   3906      1
  3949   3906   3907      1
  3950   3906   3908      1
  3951   3908   3909      1
  3952   3908   3910      1
  3953   3908   3911      1
  3954   3911   3912      1
  3955   3906   3913      1
  3956   3913   3914      1
  3957   3913   3915      1
  3958   3915   3916      1
  3959   3915   3917      1
  3960   3917   3918      1
  3961   3917   3919      1
  3962   3919   3920      1
  3963   3919   3921      1
  3964   3919   3922      1
  3965   3922   3923      1
  3966   3923   3924      1
  3967   3923   3925      1
  3968   3925   3926      1
  3969   3925   3927      1
  3970   3927   3928      1
  3971   3928   3929      1
  3972   3927   3930      1
  3973   3930   3931      1
  3974   3930   3932      1
  3975   3932   3933      1
  3976   3917   3934      1
  3977   3934   3935      1
  3978   3922   3932      1
  3979   3934   3936      1
  3980   3936   3937      1
  3981   3936   3938      1
  3982   3938   3939      1
  3983   3938   3940      1
  3984   3940   3941      1
  3985   3940   3942      1
  3986   3940   3943      1
  3987   3943   3944      1
  3988   3943   3945      1
  3989   3945   3946      1
  3990   3945   3947      1
  3991   3938   3948      1
  3992   3948   3949      1
  3993   3948   3950      1
  3994   3950   3951      1
  3995   3950   3952      1
  3996   3952   3953      1
  3997   3952   3954      1
  3998   3954   3955      1
  3999   3954   3956      1
  4000   3954   3957      1
  4001   3957   3958      1
  4002   3957   3959      1
  4003   3959   3960      1
  4004   3959   3961      1
  4005   3959   3962      1
  4006   3957   3963      1
  4007   3963   3964      1
  4008   3963   3965      1
  4009   3963   3966      1
  4010   3952   3967      1
  4011   3967   3968      1
  4012   3967   3969      1
  4013   3969   3970      1
  4014   3969   3971      1
  4015   3971   3972      1
  4016   3971   3973      1
  4017   3973   3974      1
  4018   3973   3975      1
  4019   3973   3976      1
  4020   3976   3977      1
  4021   3971   3978      1
  4022   3978   3979      1
  4023   3978   3980      1
  4024   3980   3981      1
  4025   3980   3982      1
  4026   3982   3983      1
  4027   3982   3984      1
  4028   3984   3985      1
  4029   3984   3986      1
  4030   3986   3987      1
  4031   3986   3988      1
  4032   3986   3989      1
  4033   3984   3990      1
  4034   3990   3991      1
  4035   3990   3992      1
  4036   3990   3993      1
  4037   3993   3994      1
  4038   3993   3995      1
  4039   3993   3996      1
  4040   3982   3997      1
  4041   3997   3998      1
  4042   3997   3999      1
  4043   3999   4000      1
  4044   3999   4001      1
  4045   4001   4002      1
  4046   4001   4003      1
  4047   4003   4004      1
  4048   4003   4005      1
  4049   4003   4006      1
  4050   4006   4007      1
  4051   4006   4008      1
  4052   4008   4009      1
  4053   4008   4010      1
  4054   4008   4011      1
  4055   4006   4012      1
  4056   4012   4013      1
  4057   4012   4014      1
  4058   4012   4015      1
  4059   4001   4016      1
  4060   4016   4017      1
  4061   4016   4018      1
  4062   4018   4019      1
  4063   4018   4020      1
  4064   4020   4021      1
  4065   4020   4022      1
  4066   4020   4023      1
  4067   4023   4024      1
  4068   4023   4025      1
  4069   4025   4026      1
  4070   4025   4027      1
  4071   4027   4028      1
  4072   4027   4029      1
  4073   4029   4030      1
  4074   4029   4031      1
  4075   4031   4032      1
  4076   4031   4033      1
  4077   4031   4034      1
  4078   4029   4035      1
  4079   4035   4036      1
  4080   4035   4037      1
  4081   4035   4038      1
  4082   4027   4039      1
  4083   4039   4040      1
  4084   4039   4041      1
  4085   4041   4042      1
  4086   4041   4043      1
  4087   4043   4044      1
  4088   4043   4045      1
  4089   4045   4046      1
  4090   4045   4047      1
  4091   4045   4048      1
  4092   4048   4049      1
  4093   4049   4050      1
  4094   4049   4051      1
  4095   4051   4052      1
  4096   4051   4053      1
  4097   4053   4054      1
  4098   4053   4055      1
  4099   4055   4056      1
  4100   4055   4057      1
  4101   4057   4058      1
  4102   4043   4059      1
  4103   4059   4060      1
  4104   4048   4057      1
  4105   4059   4061      1
  4106   4061   4062      1
  4107   4061   4063      1
  4108   4063   4064      1
  4109   4063   4065      1
  4110   4065   4066      1
  4111   4065   4067      1
  4112   4065   4068      1
  4113   4068   4069      1
  4114   4068   4070      1
  4115   4068   4071      1
  4116   4071   4072      1
  4117   4071   4073      1
  4118   4073   4074      1
  4119   4073   4075      1
  4120   4063   4076      1
  4121   4076   4077      1
  4122   4076   4078      1
  4123   4078   4079      1
  4124   4078   4080      1
  4125   4080   4081      1
  4126   4080   4082      1
  4127   4082   4083      1
  4128   4082   4084      1
  4129   4082   4085      1
  4130   4085   4086      1
  4131   4085   4087      1
  4132   4087   4088      1
  4133   4087   4089      1
  4134   4087   4090      1
  4135   4085   4091      1
  4136   4091   4092      1
  4137   4091   4093      1
  4138   4091   4094      1
  4139   4080   4095      1
  4140   4095   4096      1
  4141   4095   4097      1
  4142   4097   4098      1
  4143   4097   4099      1
  4144   4099   4100      1
  4145   4099   4101      1
  4146   4101   4102      1
  4147   4101   4103      1
  4148   4103   4104      1
  4149   4103   4105      1
  4150   4103   4106      1
  4151   4101   4107      1
  4152   4107   4108      1
  4153   4099   4109      1
  4154   4109   4110      1
  4155   4109   4111      1
  4156   4111   4112      1
  4157   4111   4113      1
  4158   4113   4114      1
  4159   4113   4115      1
  4160   4115   4116      1
  4161   4115   4117      1
  4162   4115   4118      1
  4163   4118   4119      1
  4164   4118   4120      1
  4165   4113   4121      1
  4166   4121   4122      1
  4167   4121   4123      1
  4168   4123   4124      1
  4169   4123   4125      1
  4170   4125   4126      1
  4171   4125   4127      1
  4172   4125   4128      1
  4173   4128   4129      1
  4174   4128   4130      1
  4175   4130   4131      1
  4176   4130   4132      1
  4177   4132   4133      1
  4178   4132   4134      1
  4179   4134   4135      1
  4180   4134   4136      1
  4181   4134   4137      1
  4182   4137   4138      1
  4183   4137   4139      1
  4184   4137   4140      1
  4185   4140   4141      1
  4186   4140   4142      1
  4187   4140   4143      1
  4188   4143   4144      1
  4189   4143   4145      1
  4190   4143   4146      1
  4191   4146   4147      1
  4192   4146   4148      1
  4193   4146   4149      1
  4194   4132   4150      1
  4195   4150   4151      1
  4196   4150   4152      1
  4197   4152   4153      1
  4198   4152   4154      1
  4199   4154   4155      1
  4200   4154   4156      1
  4201   4156   4157      1
  4202   4156   4158      1
  4203   4158   4159      1
  4204   4158   4160      1
  4205   4158   4161      1
  4206   4156   4162      1
  4207   4162   4163      1
  4208   4162   4164      1
  4209   4162   4165      1
  4210   4165   4166      1
  4211   4165   4167      1
  4212   4165   4168      1
  4213   4154   4169      1
  4214   4169   4170      1
  4215   4169   4171      1
  4216   4171   4172      1
  4217   4171   4173      1
  4218   4173   4174      1
  4219   4173   4175      1
  4220   4175   4176      1
  4221   4175   4177      1
  4222   4177   4178      1
  4223   4177   4179      1
  4224   4177   4180      1
  4225   4175   4181      1
  4226   4181   4182      1
  4227   4173   4183      1
  4228   4183   4184      1
  4229   4183   4185      1
  4230   4185   4186      1
  4231   4185   4187      1
  4232   4187   4188      1
  4233   4187   4189      1
  4234   4187   4190      1
  4235   4190   4191      1
  4236   4190   4192      1
  4237   4192   4193      1
  4238   4192   4194      1
  4239   4194   4195      1
  4240   4194   4196      1
  4241   4196   4197      1
  4242   4196   4198      1
  4243   4196   4199      1
  4244   4199   4200      1
  4245   4200   4201      1
  4246   4200   4202      1
  4247   4202   4203      1
  4248   4202   4204      1
  4249   4204   4205      1
  4250   4205   4206      1
  4251   4205   4207      1
  4252   4207   4208      1
  4253   4207   4209      1
  4254   4209   4210      1
  4255   4209   4211      1
  4256   4211   4212      1
  4257   4211   4213      1
  4258   4194   4214      1
  4259   4214   4215      1
  4260   4199   4213      1
  4261   4204   4213      1
  4262   4214   4216      1
  4263   4216   4217      1
  4264   4216   4218      1
  4265   4218   4219      1
  4266   4218   4220      1
  4267   4220   4221      1
  4268   4220   4222      1
  4269   4220   4223      1
  4270   4223   4224      1
  4271   4223   4225      1
  4272   4223   4226      1
  4273   4226   4227      1
  4274   4226   4228      1
  4275   4226   4229      1
  4276   4229   4230      1
  4277   4229   4231      1
  4278   4231   4232      1
  4279   4232   4233      1
  4280   4232   4234      1
  4281   4231   4235      1
  4282   4235   4236      1
  4283   4235   4237      1
  4284   4218   4238      1
  4285   4238   4239      1
  4286   4238   4240      1
  4287   4240   4241      1
  4288   4240   4242      1
  4289   4242   4243      1
  4290   4242   4244      1
  4291   4244   4245      1
  4292   4244   4246      1
  4293   4244   4247      1
  4294   4247   4248      1
  4295   4247   4249      1
  4296   4242   4250      1
  4297   4250   4251      1
  4298   4250   4252      1
  4299   4252   4253      1
  4300   4252   4254      1
  4301   4254   4255      1
  4302   4254   4256      1
  4303   4256   4257      1
  4304   4256   4258      1
  4305   4256   4259      1
  4306   4259   4260      1
  4307   4260   4261      1
  4308   4260   4262      1
  4309   4262   4263      1
  4310   4262   4264      1
  4311   4264   4265      1
  4312   4265   4266      1
  4313   4264   4267      1
  4314   4267   4268      1
  4315   4267   4269      1
  4316   4269   4270      1
  4317   4254   4271      1
  4318   4271   4272      1
  4319   4259   4269      1
  4320   4271   4273      1
  4321   4273   4274      1
  4322   4273   4275      1
  4323   4275   4276      1
  4324   4275   4277      1
  4325   4277   4278      1
  4326   4277   4279      1
  4327   4277   4280      1
  4328   4280   4281      1
  4329   4281   4282      1
  4330   4281   4283      1
  4331   4283   4284      1
  4332   4283   4285      1
  4333   4285   4286      1
  4334   4285   4287      1
  4335   4287   4288      1
  4336   4287   4289      1
  4337   4289   4290      1
  4338   4275   4291      1
  4339   4291   4292      1
  4340   4280   4289      1
  4341   4291   4293      1
  4342   4293   4294      1
  4343   4293   4295      1
  4344   4295   4296      1
  4345   4295   4297      1
  4346   4297   4298      1
  4347   4297   4299      1
  4348   4297   4300      1
  4349   4300   4301      1
  4350   4300   4302      1
  4351   4295   4303      1
  4352   4303   4304      1
  4353   4303   4305      1
  4354   4305   4306      1
  4355   4305   4307      1
  4356   4307   4308      1
  4357   4307   4309      1
  4358   4309   4310      1
  4359   4309   4311      1
  4360   4309   4312      1
  4361   4312   4313      1
  4362   4312   4314      1
  4363   4314   4315      1
  4364   4314   4316      1
  4365   4314   4317      1
  4366   4312   4318      1
  4367   4318   4319      1
  4368   4318   4320      1
  4369   4318   4321      1
  4370   4307   4322      1
  4371   4322   4323      1
  4372   4322   4324      1
  4373   4324   4325      1
  4374   4324   4326      1
  4375   4326   4327      1
  4376   4326   4328      1
  4377   4328   4329      1
  4378   4328   4330      1
  4379   4328   4331      1
  4380   4331   4332      1
  4381   4331   4333      1
  4382   4331   4334      1
  4383   4334   4335      1
  4384   4334   4336      1
  4385   4334   4337      1
  4386   4337   4338      1
  4387   4337   4339      1
  4388   4339   4340      1
  4389   4340   4341      1
  4390   4340   4342      1
  4391   4339   4343      1
  4392   4343   4344      1
  4393   4343   4345      1
  4394   4326   4346      1
  4395   4346   4347      1
  4396   4346   4348      1
  4397   4348   4349      1
  4398   4348   4350      1
  4399   4350   4351      1
  4400   4350   4352      1
  4401   4352   4353      1
  4402   4352   4354      1
  4403   4352   4355      1
  4404   4355   4356      1
  4405   4355   4357      1
  4406   4355   4358      1
  4407   4358   4359      1
  4408   4358   4360      1
  4409   4350   4361      1
  4410   4361   4362      1
  4411   4361   4363      1
  4412   4363   4364      1
  4413   4363   4365      1
  4414   4365   4366      1
  4415   4365   4367      1
  4416   4367   4368      1
  4417   4367   4369      1
  4418   4367   4370      1
  4419   4370   4371      1
  4420   4371   4372      1
  4421   4371   4373      1
  4422   4373   4374      1
  4423   4373   4375      1
  4424   4375   4376      1
  4425   4375   4377      1
  4426   4377   4378      1
  4427   4377   4379      1
  4428   4379   4380      1
  4429   4365   4381      1
  4430   4381   4382      1
  4431   4370   4379      1
  4432   4381   4383      1
  4433   4383   4384      1
  4434   4383   4385      1
  4435   4385   4386      1
  4436   4385   4387      1
  4437   4387   4388      1
  4438   4387   4389      1
  4439   4387   4390      1
  4440   4390   4391      1
  4441   4390   4392      1
  4442   4390   4393      1
  4443   4393   4394      1
  4444   4393   4395      1
  4445   4385   4396      1
  4446   4396   4397      1
  4447   4396   4398      1
  4448   4398   4399      1
  4449   4398   4400      1
  4450   4400   4401      1
  4451   4400   4402      1
  4452   4402   4403      1
  4453   4402   4404      1
  4454   4402   4405      1
  4455   4405   4406      1
  4456   4405   4407      1
  4457   4405   4408      1
  4458   4408   4409      1
  4459   4408   4410      1
  4460   4400   4411      1
  4461   4411   4412      1
  4462   4411   4413      1
  4463   4413   4414      1
  4464   4413   4415      1
  4465   4415   4416      1
  4466   4415   4417      1
  4467   4417   4418      1
  4468   4417   4419      1
  4469   4417   4420      1
  4470   4415   4421      1
  4471   4421   4422      1
  4472   4421   4423      1
  4473   4423   4424      1
  4474   4423   4425      1
  4475   4425   4426      1
  4476   4425   4427      1
  4477   4427   4428      1
  4478   4427   4429      1
  4479   4429   4430      1
  4480   4429   4431      1
  4481   4429   4432      1
  4482   4427   4433      1
  4483   4433   4434      1
  4484   4433   4435      1
  4485   4433   4436      1
  4486   4425   4437      1
  4487   4437   4438      1
  4488   4437   4439      1
  4489   4439   4440      1
  4490   4439   4441      1
  4491   4441   4442      1
  4492   4441   4443      1
  4493   4443   4444      1
  4494   4443   4445      1
  4495   4443   4446      1
  4496   4446   4447      1
  4497   4446   4448      1
  4498   4441   4449      1
  4499   4449   4450      1
  4500   4449   4451      1
  4501   4451   4452      1
  4502   4451   4453      1
  4503   4453   4454      1
  4504   4453   4455      1
  4505   4455   4456      1
  4506   4455   4457      1
  4507   4455   4458      1
  4508   4458   4459      1
  4509   4458   4460      1
  4510   4460   4461      1
  4511   4460   4462      1
  4512   4460   4463      1
  4513   4458   4464      1
  4514   4464   4465      1
  4515   4464   4466      1
  4516   4464   4467      1
  4517   4453   4468      1
  4518   4468   4469      1
  4519   4468   4470      1
  4520   4470   4471      1
  4521   4471   4472      1
  4522   4471   4473      1
  4523   4471   4474      1
  4524   4474   4475      1
  4525   4474   4476      1
  4526   4474   4477      1
  4527   4477   4478      1
  4528   4477   4479      1
  4529   4470   4480      1
  4530   4480   4481      1
  4531   4480   4482      1
  4532   4482   4483      1
  4533   4477   4480      1
  4534   4482   4484      1
  4535   4484   4485      1
  4536   4484   4486      1
  4537   4486   4487      1
  4538   4486   4488      1
  4539   4488   4489      1
  4540   4488   4490      1
  4541   4488   4491      1
  4542   4491   4492      1
  4543   4491   4493      1
  4544   4493   4494      1
  4545   4493   4495      1
  4546   4493   4496      1
  4547   4491   4497      1
  4548   4497   4498      1
  4549   4497   4499      1
  4550   4497   4500      1
  4551   4486   4501      1
  4552   4501   4502      1
  4553   4501   4503      1
  4554   4503   4504      1
  4555   4503   4505      1
  4556   4505   4506      1
  4557   4505   4507      1
  4558   4507   4508      1
  4559   4507   4509      1
  4560   4507   4510      1
  4561   4510   4511      1
  4562   4510   4512      1
  4563   4510   4513      1
  4564   4513   4514      1
  4565   4513   4515      1
  4566   4513   4516      1
  4567   4516   4517      1
  4568   4516   4518      1
  4569   4518   4519      1
  4570   4519   4520      1
  4571   4519   4521      1
  4572   4518   4522      1
  4573   4522   4523      1
  4574   4522   4524      1
  4575   4505   4525      1
  4576   4525   4526      1
  4577   4525   4527      1
  4578   4527   4528      1
  4579   4527   4529      1
  4580   4529   4530      1
  4581   4529   4531      1
  4582   4529   4532      1
  4583   4532   4533      1
  4584   4532   4534      1
  4585   4534   4535      1
  4586   4534   4536      1
  4587   4536   4537      1
  4588   4536   4538      1
  4589   4538   4539      1
  4590   4538   4540      1
  4591   4538   4541      1
  4592   4541   4542      1
  4593   4541   4543      1
  4594   4541   4544      1
  4595   4544   4545      1
  4596   4544   4546      1
  4597   4544   4547      1
  4598   4547   4548      1
  4599   4547   4549      1
  4600   4547   4550      1
  4601   4550   4551      1
  4602   4550   4552      1
  4603   4550   4553      1
  4604   4536   4554      1
  4605   4554   4555      1
  4606   4554   4556      1
  4607   4556   4557      1
  4608   4556   4558      1
  4609   4558   4559      1
  4610   4558   4560      1
  4611   4560   4561      1
  4612   4560   4562      1
  4613   4560   4563      1
  4614   4563   4564      1
  4615   4563   4565      1
  4616   4565   4566      1
  4617   4565   4567      1
  4618   4565   4568      1
  4619   4563   4569      1
  4620   4569   4570      1
  4621   4569   4571      1
  4622   4569   4572      1
  4623   4558   4573      1
  4624   4573   4574      1
  4625   4573   4575      1
  4626   4575   4576      1
  4627   4575   4577      1
  4628   4577   4578      1
  4629   4577   4579      1
  4630   4577   4580      1
  4631   4580   4581      1
  4632   4580   4582      1
  4633   4582   4583      1
  4634   4583   4584      1
  4635   4583   4585      1
  4636   4583   4586      1
  4637   4586   4587      1
  4638   4586   4588      1
  4639   4586   4589      1
  4640   4589   4590      1
  4641   4589   4591      1
  4642   4582   4592      1
  4643   4592   4593      1
  4644   4592   4594      1
  4645   4594   4595      1
  4646   4589   4592      1
  4647   4594   4596      1
  4648   4596   4597      1
  4649   4596   4598      1
  4650   4598   4599      1
  4651   4598   4600      1
  4652   4600   4601      1
  4653   4600   4602      1
  4654   4600   4603      1
  4655   4603   4604      1
  4656   4603   4605      1
  4657   4603   4606      1
  4658   4606   4607      1
  4659   4606   4608      1
  4660   4598   4609      1
  4661   4609   4610      1
  4662   4609   4611      1
  4663   4611   4612      1
  4664   4611   4613      1
  4665   4613   4614      1
  4666   4613   4615      1
  4667   4615   4616      1
  4668   4615   4617      1
  4669   4615   4618      1
  4670   4618   4619      1
  4671   4618   4620      1
  4672   4618   4621      1
  4673   4621   4622      1
  4674   4621   4623      1
  4675   4623   4624      1
  4676   4623   4625      1
  4677   4613   4626      1
  4678   4626   4627      1
  4679   4626   4628      1
  4680   4628   4629      1
  4681   4628   4630      1
  4682   4630   4631      1
  4683   4630   4632      1
  4684   4632   4633      1
  4685   4632   4634      1
  4686   4632   4635      1
  4687   4635   4636      1
  4688   4635   4637      1
  4689   4635   4638      1
  4690   4638   4639      1
  4691   4638   4640      1
  4692   4638   4641      1
  4693   4641   4642      1
  4694   4641   4643      1
  4695   4641   4644      1
  4696   4644   4645      1
  4697   4644   4646      1
  4698   4644   4647      1
  4699   4630   4648      1
  4700   4648   4649      1
  4701   4648   4650      1
  4702   4650   4651      1
  4703   4650   4652      1
  4704   4652   4653      1
  4705   4652   4654      1
  4706   4654   4655      1
  4707   4654   4656      1
  4708   4654   4657      1
  4709   4657   4658      1
  4710   4657   4659      1
  4711   4659   4660      1
  4712   4659   4661      1
  4713   4659   4662      1
  4714   4657   4663      1
  4715   4663   4664      1
  4716   4663   4665      1
  4717   4663   4666      1
  4718   4652   4667      1
  4719   4667   4668      1
  4720   4667   4669      1
  4721   4669   4670      1
  4722   4669   4671      1
  4723   4671   4672      1
  4724   4671   4673      1
  4725   4673   4674      1
  4726   4673   4675      1
  4727   4675   4676      1
  4728   4675   4677      1
  4729   4675   4678      1
  4730   4673   4679      1
  4731   4679   4680      1
  4732   4679   4681      1
  4733   4679   4682      1
  4734   4682   4683      1
  4735   4682   4684      1
  4736   4682   4685      1
  4737   4671   4686      1
  4738   4686   4687      1
  4739   4686   4688      1
  4740   4688   4689      1
  4741   4688   4690      1
  4742   4690   4691      1
  4743   4690   4692      1
  4744   4692   4693      1
  4745   4692   4694      1
  4746   4692   4695      1
  4747   4695   4696      1
  4748   4690   4697      1
  4749   4697   4698      1
  4750   4699   4700      1
  4751   4699   4707      1
  4752   4700   4701      1
  4753   4700   4707      1
  4754   4700   4714      1
  4755   4701   4702      1
  4756   4701   4706      1
  4757   4702   4703      1
  4758   4702   4715      1
  4759   4703   4704      1
  4760   4703   4716      1
  4761   4704   4705      1
  4762   4704   4717      1
  4763   4705   4706      1
  4764   4705   4718      1
  4765   4706   4719      1
  4766   4707   4708      1
  4767   4707   4720      1
  4768   4708   4709      1
  4769   4708   4713      1
  4770   4709   4710      1
  4771   4709   4721      1
  4772   4710   4711      1
  4773   4710   4722      1
  4774   4711   4712      1
  4775   4711   4723      1
  4776   4712   4713      1
  4777   4712   4724      1
  4778   4713   4725      1
  4779   4726   4727      1
  4780   4726   4728      1
  4781   4727   4728      1
  4782   4729   4730      1
  4783   4729   4737      1
  4784   4730   4731      1
  4785   4730   4737      1
  4786   4730   4744      1
  4787   4731   4732      1
  4788   4731   4736      1
  4789   4732   4733      1
  4790   4732   4745      1
  4791   4733   4734      1
  4792   4733   4746      1
  4793   4734   4735      1
  4794   4734   4747      1
  4795   4735   4736      1
  4796   4735   4748      1
  4797   4736   4749      1
  4798   4737   4738      1
  4799   4737   4750      1
  4800   4738   4739      1
  4801   4738   4743      1
  4802   4739   4740      1
  4803   4739   4751      1
  4804   4740   4741      1
  4805   4740   4752      1
  4806   4741   4742      1
  4807   4741   4753      1
  4808   4742   4743      1
  4809   4742   4754      1
  4810   4743   4755      1
  4811   4756   4757      1
  4812   4756   4758      1
  4813   4757   4758      1
  4814   4759   4760      1
  4815   4759   4761      1
  4816   4760   4761      1
  4817   4762   4763      1
  4818   4762   4764      1
  4819   4763   4764      1
  4820   4765   4766      1
  4821   4765   4767      1
  4822   4766   4767      1
  4823   4768   4769      1
  4824   4768   4770      1
  4825   4769   4770      1
  4826   4771   4772      1
  4827   4771   4773      1
  4828   4772   4773      1
  4829   4774   4775      1
  4830   4774   4776      1
  4831   4775   4776      1
  4832   4777   4778      1
  4833   4777   4779      1
  4834   4778   4779      1
  4835   4780   4781      1
  4836   4780   4782      1
  4837   4781   4782      1
  4838   4783   4784      1
  4839   4783   4785      1
  4840   4784   4785      1
  4841   4786   4787      1
  4842   4786   4788      1
  4843   4787   4788      1
  4844   4789   4790      1
  4845   4789   4791      1
  4846   4790   4791      1
  4847   4792   4793      1
  4848   4792   4794      1
  4849   4793   4794      1
  4850   4795   4796      1
  4851   4795   4797      1
  4852   4796   4797      1
  4853   4798   4799      1
  4854   4798   4800      1
  4855   4799   4800      1
  4856   4801   4802      1
  4857   4801   4803      1
  4858   4802   4803      1
  4859   4804   4805      1
  4860   4804   4806      1
  4861   4805   4806      1
  4862   4807   4808      1
  4863   4807   4809      1
  4864   4808   4809      1
  4865   4810   4811      1
  4866   4810   4812      1
  4867   4811   4812      1
  4868   4813   4814      1
  4869   4813   4815      1
  4870   4814   4815      1
  4871   4816   4817      1
  4872   4816   4818      1
  4873   4817   4818      1
  4874   4819   4820      1
  4875   4819   4821      1
  4876   4820   4821      1
  4877   4822   4823      1
  4878   4822   4824      1
  4879   4823   4824      1
  4880   4825   4826      1
  4881   4825   4827      1
  4882   4826   4827      1
  4883   4828   4829      1
  4884   4828   4830      1
  4885   4829   4830      1
  4886   4831   4832      1
  4887   4831   4833      1
  4888   4832   4833      1
  4889   4834   4835      1
  4890   4834   4836      1
  4891   4835   4836      1
  4892   4837   4838      1
  4893   4837   4839      1
  4894   4838   4839      1
  4895   4840   4841      1
  4896   4840   4842      1
  4897   4841   4842      1
  4898   4843   4844      1
  4899   4843   4845      1
  4900   4844   4845      1
  4901   4846   4847      1
  4902   4846   4848      1
  4903   4847   4848      1
  4904   4849   4850      1
  4905   4849   4851      1
  4906   4850   4851      1
  4907   4852   4853      1
  4908   4852   4854      1
  4909   4853   4854      1
  4910   4855   4856      1
  4911   4855   4857      1
  4912   4856   4857      1
  4913   4858   4859      1
  4914   4858   4860      1
  4915   4859   4860      1
  4916   4861   4862      1
  4917   4861   4863      1
  4918   4862   4863      1
  4919   4864   4865      1
  4920   4864   4866      1
  4921   4865   4866      1
  4922   4867   4868      1
  4923   4867   4869      1
  4924   4868   4869      1
  4925   4870   4871      1
  4926   4870   4872      1
  4927   4871   4872      1
  4928   4873   4874      1
  4929   4873   4875      1
  4930   4874   4875      1
  4931   4876   4877      1
  4932   4876   4878      1
  4933   4877   4878      1
  4934   4879   4880      1
  4935   4879   4881      1
  4936   4880   4881      1
  4937   4882   4883      1
  4938   4882   4884      1
  4939   4883   4884      1
  4940   4885   4886      1
  4941   4885   4887      1
  4942   4886   4887      1
  4943   4888   4889      1
  4944   4888   4890      1
  4945   4889   4890      1
  4946   4891   4892      1
  4947   4891   4893      1
  4948   4892   4893      1
  4949   4894   4895      1
  4950   4894   4896      1
  4951   4895   4896      1
  4952   4897   4898      1
  4953   4897   4899      1
  4954   4898   4899      1
  4955   4900   4901      1
  4956   4900   4902      1
  4957   4901   4902      1
  4958   4903   4904      1
  4959   4903   4905      1
  4960   4904   4905      1
  4961   4906   4907      1
  4962   4906   4908      1
  4963   4907   4908      1
  4964   4909   4910      1
  4965   4909   4911      1
  4966   4910   4911      1
  4967   4912   4913      1
  4968   4912   4914      1
  4969   4913   4914      1
  4970   4915   4916      1
  4971   4915   4917      1
  4972   4916   4917      1
  4973   4918   4919      1
  4974   4918   4920      1
  4975   4919   4920      1
  4976   4921   4922      1
  4977   4921   4923      1
  4978   4922   4923      1
  4979   4924   4925      1
  4980   4924   4926      1
  4981   4925   4926      1
  4982   4927   4928      1
  4983   4927   4929      1
  4984   4928   4929      1
  4985   4930   4931      1
  4986   4930   4932      1
  4987   4931   4932      1
  4988   4933   4934      1
  4989   4933   4935      1
  4990   4934   4935      1
  4991   4936   4937      1
  4992   4936   4938      1
  4993   4937   4938      1
  4994   4939   4940      1
  4995   4939   4941      1
  4996   4940   4941      1
  4997   4942   4943      1
  4998   4942   4944      1
  4999   4943   4944      1
  5000   4945   4946      1
  5001   4945   4947      1
  5002   4946   4947      1
  5003   4948   4949      1
  5004   4948   4950      1
  5005   4949   4950      1
  5006   4951   4952      1
  5007   4951   4953      1
  5008   4952   4953      1
  5009   4954   4955      1
  5010   4954   4956      1
  5011   4955   4956      1
  5012   4957   4958      1
  5013   4957   4959      1
  5014   4958   4959      1
  5015   4960   4961      1
  5016   4960   4962      1
  5017   4961   4962      1
  5018   4963   4964      1
  5019   4963   4965      1
  5020   4964   4965      1
  5021   4966   4967      1
  5022   4966   4968      1
  5023   4967   4968      1
  5024   4969   4970      1
  5025   4969   4971      1
  5026   4970   4971      1
  5027   4972   4973      1
  5028   4972   4974      1
  5029   4973   4974      1
  5030   4975   4976      1
  5031   4975   4977      1
  5032   4976   4977      1
  5033   4978   4979      1
  5034   4978   4980      1
  5035   4979   4980      1
  5036   4981   4982      1
  5037   4981   4983      1
  5038   4982   4983      1
  5039   4984   4985      1
  5040   4984   4986      1
  5041   4985   4986      1
  5042   4987   4988      1
  5043   4987   4989      1
  5044   4988   4989      1
  5045   4990   4991      1
  5046   4990   4992      1
  5047   4991   4992      1
  5048   4993   4994      1
  5049   4993   4995      1
  5050   4994   4995      1
  5051   4996   4997      1
  5052   4996   4998      1
  5053   4997   4998      1
  5054   4999   5000      1
  5055   4999   5001      1
  5056   5000   5001      1
  5057   5002   5003      1
  5058   5002   5004      1
  5059   5003   5004      1
  5060   5005   5006      1
  5061   5005   5007      1
  5062   5006   5007      1
  5063   5008   5009      1
  5064   5008   5010      1
  5065   5009   5010      1
  5066   5011   5012      1
  5067   5011   5013      1
  5068   5012   5013      1
  5069   5014   5015      1
  5070   5014   5016      1
  5071   5015   5016      1
  5072   5017   5018      1
  5073   5017   5019      1
  5074   5018   5019      1
  5075   5020   5021      1
  5076   5020   5022      1
  5077   5021   5022      1
  5078   5023   5024      1
  5079   5023   5025      1
  5080   5024   5025      1
  5081   5026   5027      1
  5082   5026   5028      1
  5083   5027   5028      1
  5084   5029   5030      1
  5085   5029   5031      1
  5086   5030   5031      1
  5087   5032   5033      1
  5088   5032   5034      1
  5089   5033   5034      1
  5090   5035   5036      1
  5091   5035   5037      1
  5092   5036   5037      1
  5093   5038   5039      1
  5094   5038   5040      1
  5095   5039   5040      1
  5096   5041   5042      1
  5097   5041   5043      1
  5098   5042   5043      1
  5099   5044   5045      1
  5100   5044   5046      1
  5101   5045   5046      1
  5102   5047   5048      1
  5103   5047   5049      1
  5104   5048   5049      1
  5105   5050   5051      1
  5106   5050   5052      1
  5107   5051   5052      1
  5108   5053   5054      1
  5109   5053   5055      1
  5110   5054   5055      1
  5111   5056   5057      1
  5112   5056   5058      1
  5113   5057   5058      1
  5114   5059   5060      1
  5115   5059   5061      1
  5116   5060   5061      1
  5117   5062   5063      1
  5118   5062   5064      1
  5119   5063   5064      1
  5120   5065   5066      1
  5121   5065   5067      1
  5122   5066   5067      1
  5123   5068   5069      1
  5124   5068   5070      1
  5125   5069   5070      1
  5126   5071   5072      1
  5127   5071   5073      1
  5128   5072   5073      1
  5129   5074   5075      1
  5130   5074   5076      1
  5131   5075   5076      1
  5132   5077   5078      1
  5133   5077   5079      1
  5134   5078   5079      1
  5135   5080   5081      1
  5136   5080   5082      1
  5137   5081   5082      1
  5138   5083   5084      1
  5139   5083   5085      1
  5140   5084   5085      1
  5141   5086   5087      1
  5142   5086   5088      1
  5143   5087   5088      1
  5144   5089   5090      1
  5145   5089   5091      1
  5146   5090   5091      1
  5147   5092   5093      1
  5148   5092   5094      1
  5149   5093   5094      1
  5150   5095   5096      1
  5151   5095   5097      1
  5152   5096   5097      1
  5153   5098   5099      1
  5154   5098   5100      1
  5155   5099   5100      1
  5156   5101   5102      1
  5157   5101   5103      1
  5158   5102   5103      1
  5159   5104   5105      1
  5160   5104   5106      1
  5161   5105   5106      1
  5162   5107   5108      1
  5163   5107   5109      1
  5164   5108   5109      1
  5165   5110   5111      1
  5166   5110   5112      1
  5167   5111   5112      1
  5168   5113   5114      1
  5169   5113   5115      1
  5170   5114   5115      1
  5171   5116   5117      1
  5172   5116   5118      1
  5173   5117   5118      1
  5174   5119   5120      1
  5175   5119   5121      1
  5176   5120   5121      1
  5177   5122   5123      1
  5178   5122   5124      1
  5179   5123   5124      1
  5180   5125   5126      1
  5181   5125   5127      1
  5182   5126   5127      1
  5183   5128   5129      1
  5184   5128   5130      1
  5185   5129   5130      1
  5186   5131   5132      1
  5187   5131   5133      1
  5188   5132   5133      1
  5189   5134   5135      1
  5190   5134   5136      1
  5191   5135   5136      1
  5192   5137   5138      1
  5193   5137   5139      1
  5194   5138   5139      1
  5195   5140   5141      1
  5196   5140   5142      1
  5197   5141   5142      1
  5198   5143   5144      1
  5199   5143   5145      1
  5200   5144   5145      1
  5201   5146   5147      1
  5202   5146   5148      1
  5203   5147   5148      1
  5204   5149   5150      1
  5205   5149   5151      1
  5206   5150   5151      1
  5207   5152   5153      1
  5208   5152   5154      1
  5209   5153   5154      1
  5210   5155   5156      1
  5211   5155   5157      1
  5212   5156   5157      1
  5213   5158   5159      1
  5214   5158   5160      1
  5215   5159   5160      1
  5216   5161   5162      1
  5217   5161   5163      1
  5218   5162   5163      1
  5219   5164   5165      1
  5220   5164   5166      1
  5221   5165   5166      1
  5222   5167   5168      1
  5223   5167   5169      1
  5224   5168   5169      1
  5225   5170   5171      1
  5226   5170   5172      1
  5227   5171   5172      1
  5228   5173   5174      1
  5229   5173   5175      1
  5230   5174   5175      1
  5231   5176   5177      1
  5232   5176   5178      1
  5233   5177   5178      1
  5234   5179   5180      1
  5235   5179   5181      1
  5236   5180   5181      1
  5237   5182   5183      1
  5238   5182   5184      1
  5239   5183   5184      1
  5240   5185   5186      1
  5241   5185   5187      1
  5242   5186   5187      1
  5243   5188   5189      1
  5244   5188   5190      1
  5245   5189   5190      1
  5246   5191   5192      1
  5247   5191   5193      1
  5248   5192   5193      1
  5249   5194   5195      1
  5250   5194   5196      1
  5251   5195   5196      1
  5252   5197   5198      1
  5253   5197   5199      1
  5254   5198   5199      1
  5255   5200   5201      1
  5256   5200   5202      1
  5257   5201   5202      1
  5258   5203   5204      1
  5259   5203   5205      1
  5260   5204   5205      1
  5261   5206   5207      1
  5262   5206   5208      1
  5263   5207   5208      1
  5264   5209   5210      1
  5265   5209   5211      1
  5266   5210   5211      1
  5267   5212   5213      1
  5268   5212   5214      1
  5269   5213   5214      1
  5270   5215   5216      1
  5271   5215   5217      1
  5272   5216   5217      1
  5273   5218   5219      1
  5274   5218   5220      1
  5275   5219   5220      1
  5276   5221   5222      1
  5277   5221   5223      1
  5278   5222   5223      1
  5279   5224   5225      1
  5280   5224   5226      1
  5281   5225   5226      1
  5282   5227   5228      1
  5283   5227   5229      1
  5284   5228   5229      1
  5285   5230   5231      1
  5286   5230   5232      1
  5287   5231   5232      1
  5288   5233   5234      1
  5289   5233   5235      1
  5290   5234   5235      1
  5291   5236   5237      1
  5292   5236   5238      1
  5293   5237   5238      1
  5294   5239   5240      1
  5295   5239   5241      1
  5296   5240   5241      1
  5297   5242   5243      1
  5298   5242   5244      1
  5299   5243   5244      1
  5300   5245   5246      1
  5301   5245   5247      1
  5302   5246   5247      1
  5303   5248   5249      1
  5304   5248   5250      1
  5305   5249   5250      1
  5306   5251   5252      1
  5307   5251   5253      1
  5308   5252   5253      1
  5309   5254   5255      1
  5310   5254   5256      1
  5311   5255   5256      1
  5312   5257   5258      1
  5313   5257   5259      1
  5314   5258   5259      1
  5315   5260   5261      1
  5316   5260   5262      1
  5317   5261   5262      1
  5318   5263   5264      1
  5319   5263   5265      1
  5320   5264   5265      1
  5321   5266   5267      1
  5322   5266   5268      1
  5323   5267   5268      1
  5324   5269   5270      1
  5325   5269   5271      1
  5326   5270   5271      1
  5327   5272   5273      1
  5328   5272   5274      1
  5329   5273   5274      1
  5330   5275   5276      1
  5331   5275   5277      1
  5332   5276   5277      1
  5333   5278   5279      1
  5334   5278   5280      1
  5335   5279   5280      1
  5336   5281   5282      1
  5337   5281   5283      1
  5338   5282   5283      1
  5339   5284   5285      1
  5340   5284   5286      1
  5341   5285   5286      1
  5342   5287   5288      1
  5343   5287   5289      1
  5344   5288   5289      1
  5345   5290   5291      1
  5346   5290   5292      1
  5347   5291   5292      1
  5348   5293   5294      1
  5349   5293   5295      1
  5350   5294   5295      1
  5351   5296   5297      1
  5352   5296   5298      1
  5353   5297   5298      1
  5354   5299   5300      1
  5355   5299   5301      1
  5356   5300   5301      1
  5357   5302   5303      1
  5358   5302   5304      1
  5359   5303   5304      1
  5360   5305   5306      1
  5361   5305   5307      1
  5362   5306   5307      1
  5363   5308   5309      1
  5364   5308   5310      1
  5365   5309   5310      1
  5366   5311   5312      1
  5367   5311   5313      1
  5368   5312   5313      1
  5369   5314   5315      1
  5370   5314   5316      1
  5371   5315   5316      1
  5372   5317   5318      1
  5373   5317   5319      1
  5374   5318   5319      1
  5375   5320   5321      1
  5376   5320   5322      1
  5377   5321   5322      1
  5378   5323   5324      1
  5379   5323   5325      1
  5380   5324   5325      1
  5381   5326   5327      1
  5382   5326   5328      1
  5383   5327   5328      1
  5384   5329   5330      1
  5385   5329   5331      1
  5386   5330   5331      1
  5387   5332   5333      1
  5388   5332   5334      1
  5389   5333   5334      1
  5390   5335   5336      1
  5391   5335   5337      1
  5392   5336   5337      1
  5393   5338   5339      1
  5394   5338   5340      1
  5395   5339   5340      1
  5396   5341   5342      1
  5397   5341   5343      1
  5398   5342   5343      1
  5399   5344   5345      1
  5400   5344   5346      1
  5401   5345   5346      1
  5402   5347   5348      1
  5403   5347   5349      1
  5404   5348   5349      1
  5405   5350   5351      1
  5406   5350   5352      1
  5407   5351   5352      1
  5408   5353   5354      1
  5409   5353   5355      1
  5410   5354   5355      1
  5411   5356   5357      1
  5412   5356   5358      1
  5413   5357   5358      1
  5414   5359   5360      1
  5415   5359   5361      1
  5416   5360   5361      1
  5417   5362   5363      1
  5418   5362   5364      1
  5419   5363   5364      1
  5420   5365   5366      1
  5421   5365   5367      1
  5422   5366   5367      1
  5423   5368   5369      1
  5424   5368   5370      1
  5425   5369   5370      1
  5426   5371   5372      1
  5427   5371   5373      1
  5428   5372   5373      1
  5429   5374   5375      1
  5430   5374   5376      1
  5431   5375   5376      1
  5432   5377   5378      1
  5433   5377   5379      1
  5434   5378   5379      1
  5435   5380   5381      1
  5436   5380   5382      1
  5437   5381   5382      1
  5438   5383   5384      1
  5439   5383   5385      1
  5440   5384   5385      1
  5441   5386   5387      1
  5442   5386   5388      1
  5443   5387   5388      1
  5444   5389   5390      1
  5445   5389   5391      1
  5446   5390   5391      1
  5447   5392   5393      1
  5448   5392   5394      1
  5449   5393   5394      1
  5450   5395   5396      1
  5451   5395   5397      1
  5452   5396   5397      1
  5453   5398   5399      1
  5454   5398   5400      1
  5455   5399   5400      1
  5456   5401   5402      1
  5457   5401   5403      1
  5458   5402   5403      1
  5459   5404   5405      1
  5460   5404   5406      1
  5461   5405   5406      1
  5462   5407   5408      1
  5463   5407   5409      1
  5464   5408   5409      1
  5465   5410   5411      1
  5466   5410   5412      1
  5467   5411   5412      1
  5468   5413   5414      1
  5469   5413   5415      1
  5470   5414   5415      1
  5471   5416   5417      1
  5472   5416   5418      1
  5473   5417   5418      1
  5474   5419   5420      1
  5475   5419   5421      1
  5476   5420   5421      1
  5477   5422   5423      1
  5478   5422   5424      1
  5479   5423   5424      1
  5480   5425   5426      1
  5481   5425   5427      1
  5482   5426   5427      1
  5483   5428   5429      1
  5484   5428   5430      1
  5485   5429   5430      1
  5486   5431   5432      1
  5487   5431   5433      1
  5488   5432   5433      1
  5489   5434   5435      1
  5490   5434   5436      1
  5491   5435   5436      1
  5492   5437   5438      1
  5493   5437   5439      1
  5494   5438   5439      1
  5495   5440   5441      1
  5496   5440   5442      1
  5497   5441   5442      1
  5498   5443   5444      1
  5499   5443   5445      1
  5500   5444   5445      1
  5501   5446   5447      1
  5502   5446   5448      1
  5503   5447   5448      1
  5504   5449   5450      1
  5505   5449   5451      1
  5506   5450   5451      1
  5507   5452   5453      1
  5508   5452   5454      1
  5509   5453   5454      1
  5510   5455   5456      1
  5511   5455   5457      1
  5512   5456   5457      1
  5513   5458   5459      1
  5514   5458   5460      1
  5515   5459   5460      1
  5516   5461   5462      1
  5517   5461   5463      1
  5518   5462   5463      1
  5519   5464   5465      1
  5520   5464   5466      1
  5521   5465   5466      1
  5522   5467   5468      1
  5523   5467   5469      1
  5524   5468   5469      1
  5525   5470   5471      1
  5526   5470   5472      1
  5527   5471   5472      1
  5528   5473   5474      1
  5529   5473   5475      1
  5530   5474   5475      1
  5531   5476   5477      1
  5532   5476   5478      1
  5533   5477   5478      1
  5534   5479   5480      1
  5535   5479   5481      1
  5536   5480   5481      1
  5537   5482   5483      1
  5538   5482   5484      1
  5539   5483   5484      1
  5540   5485   5486      1
  5541   5485   5487      1
  5542   5486   5487      1
  5543   5488   5489      1
  5544   5488   5490      1
  5545   5489   5490      1
  5546   5491   5492      1
  5547   5491   5493      1
  5548   5492   5493      1
  5549   5494   5495      1
  5550   5494   5496      1
  5551   5495   5496      1
  5552   5497   5498      1
  5553   5497   5499      1
  5554   5498   5499      1
  5555   5500   5501      1
  5556   5500   5502      1
  5557   5501   5502      1
  5558   5503   5504      1
  5559   5503   5505      1
  5560   5504   5505      1
  5561   5506   5507      1
  5562   5506   5508      1
  5563   5507   5508      1
  5564   5509   5510      1
  5565   5509   5511      1
  5566   5510   5511      1
  5567   5512   5513      1
  5568   5512   5514      1
  5569   5513   5514      1
  5570   5515   5516      1
  5571   5515   5517      1
  5572   5516   5517      1
  5573   5518   5519      1
  5574   5518   5520      1
  5575   5519   5520      1
  5576   5521   5522      1
  5577   5521   5523      1
  5578   5522   5523      1
  5579   5524   5525      1
  5580   5524   5526      1
  5581   5525   5526      1
  5582   5527   5528      1
  5583   5527   5529      1
  5584   5528   5529      1
  5585   5530   5531      1
  5586   5530   5532      1
  5587   5531   5532      1
  5588   5533   5534      1
  5589   5533   5535      1
  5590   5534   5535      1
  5591   5536   5537      1
  5592   5536   5538      1
  5593   5537   5538      1
  5594   5539   5540      1
  5595   5539   5541      1
  5596   5540   5541      1
  5597   5542   5543      1
  5598   5542   5544      1
  5599   5543   5544      1
  5600   5545   5546      1
  5601   5545   5547      1
  5602   5546   5547      1
  5603   5548   5549      1
  5604   5548   5550      1
  5605   5549   5550      1
  5606   5551   5552      1
  5607   5551   5553      1
  5608   5552   5553      1
  5609   5554   5555      1
  5610   5554   5556      1
  5611   5555   5556      1
  5612   5557   5558      1
  5613   5557   5559      1
  5614   5558   5559      1
  5615   5560   5561      1
  5616   5560   5562      1
  5617   5561   5562      1
  5618   5563   5564      1
  5619   5563   5565      1
  5620   5564   5565      1
  5621   5566   5567      1
  5622   5566   5568      1
  5623   5567   5568      1
  5624   5569   5570      1
  5625   5569   5571      1
  5626   5570   5571      1
  5627   5572   5573      1
  5628   5572   5574      1
  5629   5573   5574      1
  5630   5575   5576      1
  5631   5575   5577      1
  5632   5576   5577      1
  5633   5578   5579      1
  5634   5578   5580      1
  5635   5579   5580      1
  5636   5581   5582      1
  5637   5581   5583      1
  5638   5582   5583      1
  5639   5584   5585      1
  5640   5584   5586      1
  5641   5585   5586      1
  5642   5587   5588      1
  5643   5587   5589      1
  5644   5588   5589      1
  5645   5590   5591      1
  5646   5590   5592      1
  5647   5591   5592      1
  5648   5593   5594      1
  5649   5593   5595      1
  5650   5594   5595      1
  5651   5596   5597      1
  5652   5596   5598      1
  5653   5597   5598      1
  5654   5599   5600      1
  5655   5599   5601      1
  5656   5600   5601      1
  5657   5602   5603      1
  5658   5602   5604      1
  5659   5603   5604      1
  5660   5605   5606      1
  5661   5605   5607      1
  5662   5606   5607      1
  5663   5608   5609      1
  5664   5608   5610      1
  5665   5609   5610      1
  5666   5611   5612      1
  5667   5611   5613      1
  5668   5612   5613      1
  5669   5614   5615      1
  5670   5614   5616      1
  5671   5615   5616      1
  5672   5617   5618      1
  5673   5617   5619      1
  5674   5618   5619      1
  5675   5620   5621      1
  5676   5620   5622      1
  5677   5621   5622      1
  5678   5623   5624      1
  5679   5623   5625      1
  5680   5624   5625      1
  5681   5626   5627      1
  5682   5626   5628      1
  5683   5627   5628      1
  5684   5629   5630      1
  5685   5629   5631      1
  5686   5630   5631      1
  5687   5632   5633      1
  5688   5632   5634      1
  5689   5633   5634      1
  5690   5635   5636      1
  5691   5635   5637      1
  5692   5636   5637      1
  5693   5638   5639      1
  5694   5638   5640      1
  5695   5639   5640      1
  5696   5641   5642      1
  5697   5641   5643      1
  5698   5642   5643      1
  5699   5644   5645      1
  5700   5644   5646      1
  5701   5645   5646      1
  5702   5647   5648      1
  5703   5647   5649      1
  5704   5648   5649      1
  5705   5650   5651      1
  5706   5650   5652      1
  5707   5651   5652      1
  5708   5653   5654      1
  5709   5653   5655      1
  5710   5654   5655      1
  5711   5656   5657      1
  5712   5656   5658      1
  5713   5657   5658      1
  5714   5659   5660      1
  5715   5659   5661      1
  5716   5660   5661      1
  5717   5662   5663      1
  5718   5662   5664      1
  5719   5663   5664      1
  5720   5665   5666      1
  5721   5665   5667      1
  5722   5666   5667      1
  5723   5668   5669      1
  5724   5668   5670      1
  5725   5669   5670      1
  5726   5671   5672      1
  5727   5671   5673      1
  5728   5672   5673      1
  5729   5674   5675      1
  5730   5674   5676      1
  5731   5675   5676      1
  5732   5677   5678      1
  5733   5677   5679      1
  5734   5678   5679      1
  5735   5680   5681      1
  5736   5680   5682      1
  5737   5681   5682      1
  5738   5683   5684      1
  5739   5683   5685      1
  5740   5684   5685      1
  5741   5686   5687      1
  5742   5686   5688      1
  5743   5687   5688      1
  5744   5689   5690      1
  5745   5689   5691      1
  5746   5690   5691      1
  5747   5692   5693      1
  5748   5692   5694      1
  5749   5693   5694      1
  5750   5695   5696      1
  5751   5695   5697      1
  5752   5696   5697      1
  5753   5698   5699      1
  5754   5698   5700      1
  5755   5699   5700      1
  5756   5701   5702      1
  5757   5701   5703      1
  5758   5702   5703      1
  5759   5704   5705      1
  5760   5704   5706      1
  5761   5705   5706      1
  5762   5707   5708      1
  5763   5707   5709      1
  5764   5708   5709      1
  5765   5710   5711      1
  5766   5710   5712      1
  5767   5711   5712      1
  5768   5713   5714      1
  5769   5713   5715      1
  5770   5714   5715      1
  5771   5716   5717      1
  5772   5716   5718      1
  5773   5717   5718      1
  5774   5719   5720      1
  5775   5719   5721      1
  5776   5720   5721      1
  5777   5722   5723      1
  5778   5722   5724      1
  5779   5723   5724      1
  5780   5725   5726      1
  5781   5725   5727      1
  5782   5726   5727      1
  5783   5728   5729      1
  5784   5728   5730      1
  5785   5729   5730      1
  5786   5731   5732      1
  5787   5731   5733      1
  5788   5732   5733      1
  5789   5734   5735      1
  5790   5734   5736      1
  5791   5735   5736      1
  5792   5737   5738      1
  5793   5737   5739      1
  5794   5738   5739      1
  5795   5740   5741      1
  5796   5740   5742      1
  5797   5741   5742      1
  5798   5743   5744      1
  5799   5743   5745      1
  5800   5744   5745      1
  5801   5746   5747      1
  5802   5746   5748      1
  5803   5747   5748      1
  5804   5749   5750      1
  5805   5749   5751      1
  5806   5750   5751      1
  5807   5752   5753      1
  5808   5752   5754      1
  5809   5753   5754      1
  5810   5755   5756      1
  5811   5755   5757      1
  5812   5756   5757      1
  5813   5758   5759      1
  5814   5758   5760      1
  5815   5759   5760      1
  5816   5761   5762      1
  5817   5761   5763      1
  5818   5762   5763      1
  5819   5764   5765      1
  5820   5764   5766      1
  5821   5765   5766      1
  5822   5767   5768      1
  5823   5767   5769      1
  5824   5768   5769      1
  5825   5770   5771      1
  5826   5770   5772      1
  5827   5771   5772      1
  5828   5773   5774      1
  5829   5773   5775      1
  5830   5774   5775      1
  5831   5776   5777      1
  5832   5776   5778      1
  5833   5777   5778      1
  5834   5779   5780      1
  5835   5779   5781      1
  5836   5780   5781      1
  5837   5782   5783      1
  5838   5782   5784      1
  5839   5783   5784      1
  5840   5785   5786      1
  5841   5785   5787      1
  5842   5786   5787      1
  5843   5788   5789      1
  5844   5788   5790      1
  5845   5789   5790      1
  5846   5791   5792      1
  5847   5791   5793      1
  5848   5792   5793      1
  5849   5794   5795      1
  5850   5794   5796      1
  5851   5795   5796      1
  5852   5797   5798      1
  5853   5797   5799      1
  5854   5798   5799      1
  5855   5800   5801      1
  5856   5800   5802      1
  5857   5801   5802      1
  5858   5803   5804      1
  5859   5803   5805      1
  5860   5804   5805      1
  5861   5806   5807      1
  5862   5806   5808      1
  5863   5807   5808      1
  5864   5809   5810      1
  5865   5809   5811      1
  5866   5810   5811      1
  5867   5812   5813      1
  5868   5812   5814      1
  5869   5813   5814      1
  5870   5815   5816      1
  5871   5815   5817      1
  5872   5816   5817      1
  5873   5818   5819      1
  5874   5818   5820      1
  5875   5819   5820      1
  5876   5821   5822      1
  5877   5821   5823      1
  5878   5822   5823      1
  5879   5824   5825      1
  5880   5824   5826      1
  5881   5825   5826      1
  5882   5827   5828      1
  5883   5827   5829      1
  5884   5828   5829      1
  5885   5830   5831      1
  5886   5830   5832      1
  5887   5831   5832      1
  5888   5833   5834      1
  5889   5833   5835      1
  5890   5834   5835      1
  5891   5836   5837      1
  5892   5836   5838      1
  5893   5837   5838      1
  5894   5839   5840      1
  5895   5839   5841      1
  5896   5840   5841      1
  5897   5842   5843      1
  5898   5842   5844      1
  5899   5843   5844      1
  5900   5845   5846      1
  5901   5845   5847      1
  5902   5846   5847      1
  5903   5848   5849      1
  5904   5848   5850      1
  5905   5849   5850      1
  5906   5851   5852      1
  5907   5851   5853      1
  5908   5852   5853      1
  5909   5854   5855      1
  5910   5854   5856      1
  5911   5855   5856      1
  5912   5857   5858      1
  5913   5857   5859      1
  5914   5858   5859      1
  5915   5860   5861      1
  5916   5860   5862      1
  5917   5861   5862      1
  5918   5863   5864      1
  5919   5863   5865      1
  5920   5864   5865      1
  5921   5866   5867      1
  5922   5866   5868      1
  5923   5867   5868      1
  5924   5869   5870      1
  5925   5869   5871      1
  5926   5870   5871      1
  5927   5872   5873      1
  5928   5872   5874      1
  5929   5873   5874      1
  5930   5875   5876      1
  5931   5875   5877      1
  5932   5876   5877      1
  5933   5878   5879      1
  5934   5878   5880      1
  5935   5879   5880      1
  5936   5881   5882      1
  5937   5881   5883      1
  5938   5882   5883      1
  5939   5884   5885      1
  5940   5884   5886      1
  5941   5885   5886      1
  5942   5887   5888      1
  5943   5887   5889      1
  5944   5888   5889      1
  5945   5890   5891      1
  5946   5890   5892      1
  5947   5891   5892      1
  5948   5893   5894      1
  5949   5893   5895      1
  5950   5894   5895      1
  5951   5896   5897      1
  5952   5896   5898      1
  5953   5897   5898      1
  5954   5899   5900      1
  5955   5899   5901      1
  5956   5900   5901      1
  5957   5902   5903      1
  5958   5902   5904      1
  5959   5903   5904      1
  5960   5905   5906      1
  5961   5905   5907      1
  5962   5906   5907      1
  5963   5908   5909      1
  5964   5908   5910      1
  5965   5909   5910      1
  5966   5911   5912      1
  5967   5911   5913      1
  5968   5912   5913      1
  5969   5914   5915      1
  5970   5914   5916      1
  5971   5915   5916      1
  5972   5917   5918      1
  5973   5917   5919      1
  5974   5918   5919      1
  5975   5920   5921      1
  5976   5920   5922      1
  5977   5921   5922      1
  5978   5923   5924      1
  5979   5923   5925      1
  5980   5924   5925      1
  5981   5926   5927      1
  5982   5926   5928      1
  5983   5927   5928      1
  5984   5929   5930      1
  5985   5929   5931      1
  5986   5930   5931      1
  5987   5932   5933      1
  5988   5932   5934      1
  5989   5933   5934      1
  5990   5935   5936      1
  5991   5935   5937      1
  5992   5936   5937      1
  5993   5938   5939      1
  5994   5938   5940      1
  5995   5939   5940      1
  5996   5941   5942      1
  5997   5941   5943      1
  5998   5942   5943      1
  5999   5944   5945      1
  6000   5944   5946      1
  6001   5945   5946      1
  6002   5947   5948      1
  6003   5947   5949      1
  6004   5948   5949      1
  6005   5950   5951      1
  6006   5950   5952      1
  6007   5951   5952      1
  6008   5953   5954      1
  6009   5953   5955      1
  6010   5954   5955      1
  6011   5956   5957      1
  6012   5956   5958      1
  6013   5957   5958      1
  6014   5959   5960      1
  6015   5959   5961      1
  6016   5960   5961      1
  6017   5962   5963      1
  6018   5962   5964      1
  6019   5963   5964      1
  6020   5965   5966      1
  6021   5965   5967      1
  6022   5966   5967      1
  6023   5968   5969      1
  6024   5968   5970      1
  6025   5969   5970      1
  6026   5971   5972      1
  6027   5971   5973      1
  6028   5972   5973      1
  6029   5974   5975      1
  6030   5974   5976      1
  6031   5975   5976      1
  6032   5977   5978      1
  6033   5977   5979      1
  6034   5978   5979      1
  6035   5980   5981      1
  6036   5980   5982      1
  6037   5981   5982      1
  6038   5983   5984      1
  6039   5983   5985      1
  6040   5984   5985      1
  6041   5986   5987      1
  6042   5986   5988      1
  6043   5987   5988      1
  6044   5989   5990      1
  6045   5989   5991      1
  6046   5990   5991      1
  6047   5992   5993      1
  6048   5992   5994      1
  6049   5993   5994      1
  6050   5995   5996      1
  6051   5995   5997      1
  6052   5996   5997      1
  6053   5998   5999      1
  6054   5998   6000      1
  6055   5999   6000      1
  6056   6001   6002      1
  6057   6001   6003      1
  6058   6002   6003      1
  6059   6004   6005      1
  6060   6004   6006      1
  6061   6005   6006      1
  6062   6007   6008      1
  6063   6007   6009      1
  6064   6008   6009      1
  6065   6010   6011      1
  6066   6010   6012      1
  6067   6011   6012      1
  6068   6013   6014      1
  6069   6013   6015      1
  6070   6014   6015      1
  6071   6016   6017      1
  6072   6016   6018      1
  6073   6017   6018      1
  6074   6019   6020      1
  6075   6019   6021      1
  6076   6020   6021      1
  6077   6022   6023      1
  6078   6022   6024      1
  6079   6023   6024      1
@<TRIPOS>SUBSTRUCTURE
     1 ILE1           1 RESIDUE  1 A ILE 
     2 GLU2          20 RESIDUE  1 A GLU 
     3 GLN3          35 RESIDUE  1 A GLN 
     4 PRO4          52 RESIDUE  1 A PRO 
     5 ARG5          66 RESIDUE  1 A ARG 
     6 TRP6          90 RESIDUE  1 A TRP 
     7 ALA7         114 RESIDUE  1 A ALA 
     8 SER8         124 RESIDUE  1 A SER 
     9 LYS9         135 RESIDUE  1 A LYS 
    10 ASP10        157 RESIDUE  1 A ASP 
    11 PRO11        169 RESIDUE  1 A PRO 
    12 ALA12        183 RESIDUE  1 A ALA 
    13 ALA13        193 RESIDUE  1 A ALA 
    14 GLY14        203 RESIDUE  1 A GLY 
    15 LYS15        210 RESIDUE  1 A LYS 
    16 ALA16        232 RESIDUE  1 A ALA 
    17 SER17        242 RESIDUE  1 A SER 
    18 THR18        253 RESIDUE  1 A THR 
    19 PRO19        267 RESIDUE  1 A PRO 
    20 ASP20        281 RESIDUE  1 A ASP 
    21 GLU21        293 RESIDUE  1 A GLU 
    22 LYS22        308 RESIDUE  1 A LYS 
    23 ILE23        330 RESIDUE  1 A ILE 
    24 VAL24        349 RESIDUE  1 A VAL 
    25 LEU25        365 RESIDUE  1 A LEU 
    26 GLU26        384 RESIDUE  1 A GLU 
    27 PHE27        399 RESIDUE  1 A PHE 
    28 MET28        419 GROUP    0 A MET 
    29 ASP29        436 RESIDUE  1 A ASP 
    30 ALA30        448 RESIDUE  1 A ALA 
    31 LEU31        458 RESIDUE  1 A LEU 
    32 THR32        477 RESIDUE  1 A THR 
    33 SER33        491 RESIDUE  1 A SER 
    34 ASN34        502 RESIDUE  1 A ASN 
    35 ASP35        516 RESIDUE  1 A ASP 
    36 ALA36        528 RESIDUE  1 A ALA 
    37 ALA37        538 RESIDUE  1 A ALA 
    38 LYS38        548 RESIDUE  1 A LYS 
    39 LEU39        570 RESIDUE  1 A LEU 
    40 ILE40        589 RESIDUE  1 A ILE 
    41 LYS41        608 RESIDUE  1 A LYS 
    42 TYR42        630 RESIDUE  1 A TYR 
    43 PHE43        651 RESIDUE  1 A PHE 
    44 ALA44        671 RESIDUE  1 A ALA 
    45 GLU45        681 RESIDUE  1 A GLU 
    46 ASP46        696 RESIDUE  1 A ASP 
    47 THR47        708 RESIDUE  1 A THR 
    48 MET48        722 GROUP    0 A MET 
    49 TYR49        739 RESIDUE  1 A TYR 
    50 GLN50        760 RESIDUE  1 A GLN 
    51 ASN51        777 RESIDUE  1 A ASN 
    52 MET52        791 GROUP    0 A MET 
    53 PRO53        808 RESIDUE  1 A PRO 
    54 LEU54        822 RESIDUE  1 A LEU 
    55 PRO55        841 RESIDUE  1 A PRO 
    56 PRO56        855 RESIDUE  1 A PRO 
    57 ALA57        869 RESIDUE  1 A ALA 
    58 TYR58        879 RESIDUE  1 A TYR 
    59 GLY59        900 RESIDUE  1 A GLY 
    60 ARG60        907 RESIDUE  1 A ARG 
    61 ASP61        931 RESIDUE  1 A ASP 
    62 ALA62        943 RESIDUE  1 A ALA 
    63 VAL63        953 RESIDUE  1 A VAL 
    64 GLU64        969 RESIDUE  1 A GLU 
    65 GLN65        984 RESIDUE  1 A GLN 
    66 THR66       1001 RESIDUE  1 A THR 
    67 LEU67       1015 RESIDUE  1 A LEU 
    68 ALA68       1034 RESIDUE  1 A ALA 
    69 GLY69       1044 RESIDUE  1 A GLY 
    70 LEU70       1051 RESIDUE  1 A LEU 
    71 PHE71       1070 RESIDUE  1 A PHE 
    72 LYS72       1090 RESIDUE  1 A LYS 
    73 VAL73       1112 RESIDUE  1 A VAL 
    74 MET74       1128 GROUP    0 A MET 
    75 SER75       1145 RESIDUE  1 A SER 
    76 ILE76       1156 RESIDUE  1 A ILE 
    77 ASP77       1175 RESIDUE  1 A ASP 
    78 ALA78       1187 RESIDUE  1 A ALA 
    79 VAL79       1197 RESIDUE  1 A VAL 
    80 GLU80       1213 RESIDUE  1 A GLU 
    81 VAL81       1228 RESIDUE  1 A VAL 
    82 PHE82       1244 RESIDUE  1 A PHE 
    83 HIP83       1264 RESIDUE  1 A HIP 
    84 ILE84       1282 RESIDUE  1 A ILE 
    85 GLY85       1301 RESIDUE  1 A GLY 
    86 SER86       1308 RESIDUE  1 A SER 
    87 SER87       1319 RESIDUE  1 A SER 
    88 LYS88       1330 RESIDUE  1 A LYS 
    89 GLY89       1352 RESIDUE  1 A GLY 
    90 LEU90       1359 RESIDUE  1 A LEU 
    91 VAL91       1378 RESIDUE  1 A VAL 
    92 PHE92       1394 RESIDUE  1 A PHE 
    93 THR93       1414 RESIDUE  1 A THR 
    94 GLU94       1428 RESIDUE  1 A GLU 
    95 ARG95       1443 RESIDUE  1 A ARG 
    96 VAL96       1467 RESIDUE  1 A VAL 
    97 ASH97       1483 RESIDUE  1 A ASH 
    98 VAL98       1496 RESIDUE  1 A VAL 
    99 LEU99       1512 RESIDUE  1 A LEU 
   100 ARG100      1531 RESIDUE  1 A ARG 
   101 ALA101      1555 RESIDUE  1 A ALA 
   102 LEU102      1565 RESIDUE  1 A LEU 
   103 PRO103      1584 RESIDUE  1 A PRO 
   104 THR104      1598 RESIDUE  1 A THR 
   105 GLY105      1612 RESIDUE  1 A GLY 
   106 LYS106      1619 RESIDUE  1 A LYS 
   107 SER107      1641 RESIDUE  1 A SER 
   108 TYR108      1652 RESIDUE  1 A TYR 
   109 ASN109      1673 RESIDUE  1 A ASN 
   110 LEU110      1687 RESIDUE  1 A LEU 
   111 SER111      1706 RESIDUE  1 A SER 
   112 ILE112      1717 RESIDUE  1 A ILE 
   113 LEU113      1736 RESIDUE  1 A LEU 
   114 GLY114      1755 RESIDUE  1 A GLY 
   115 VAL115      1762 RESIDUE  1 A VAL 
   116 PHE116      1778 RESIDUE  1 A PHE 
   117 GLN117      1798 RESIDUE  1 A GLN 
   118 LEU118      1815 RESIDUE  1 A LEU 
   119 THR119      1834 RESIDUE  1 A THR 
   120 ASP120      1848 RESIDUE  1 A ASP 
   121 GLY121      1860 RESIDUE  1 A GLY 
   122 LYS122      1867 RESIDUE  1 A LYS 
   123 ILE123      1889 RESIDUE  1 A ILE 
   124 THR124      1908 RESIDUE  1 A THR 
   125 GLY125      1922 RESIDUE  1 A GLY 
   126 TRP126      1929 RESIDUE  1 A TRP 
   127 ARG127      1953 RESIDUE  1 A ARG 
   128 ASP128      1977 RESIDUE  1 A ASP 
   129 TYR129      1989 RESIDUE  1 A TYR 
   130 PHE130      2010 RESIDUE  1 A PHE 
   131 ASP131      2030 RESIDUE  1 A ASP 
   132 LEU132      2042 RESIDUE  1 A LEU 
   133 ARG133      2061 RESIDUE  1 A ARG 
   134 GLU134      2085 RESIDUE  1 A GLU 
   135 PHE135      2100 RESIDUE  1 A PHE 
   136 GLU136      2120 RESIDUE  1 A GLU 
   137 GLU137      2135 RESIDUE  1 A GLU 
   138 ALA138      2150 RESIDUE  1 A ALA 
   139 VAL139      2160 RESIDUE  1 A VAL 
   140 ASP140      2176 RESIDUE  1 A ASP 
   141 LEU141      2188 RESIDUE  1 A LEU 
   142 PRO142      2207 RESIDUE  1 A PRO 
   143 LEU143      2221 RESIDUE  1 A LEU 
   144 ARG144      2240 RESIDUE  1 A ARG 
   145 ILE145      2264 RESIDUE  1 A ILE 
   146 GLU146      2283 RESIDUE  1 A GLU 
   147 GLN147      2298 RESIDUE  1 A GLN 
   148 PRO148      2315 RESIDUE  1 A PRO 
   149 ARG149      2329 RESIDUE  1 A ARG 
   150 TRP150      2353 RESIDUE  1 A TRP 
   151 ALA151      2377 RESIDUE  1 A ALA 
   152 SER152      2387 RESIDUE  1 A SER 
   153 LYS153      2398 RESIDUE  1 A LYS 
   154 ASP154      2420 RESIDUE  1 A ASP 
   155 PRO155      2432 RESIDUE  1 A PRO 
   156 ALA156      2446 RESIDUE  1 A ALA 
   157 ALA157      2456 RESIDUE  1 A ALA 
   158 GLY158      2466 RESIDUE  1 A GLY 
   159 LYS159      2473 RESIDUE  1 A LYS 
   160 ALA160      2495 RESIDUE  1 A ALA 
   161 SER161      2505 RESIDUE  1 A SER 
   162 THR162      2516 RESIDUE  1 A THR 
   163 PRO163      2530 RESIDUE  1 A PRO 
   164 ASP164      2544 RESIDUE  1 A ASP 
   165 GLU165      2556 RESIDUE  1 A GLU 
   166 LYS166      2571 RESIDUE  1 A LYS 
   167 ILE167      2593 RESIDUE  1 A ILE 
   168 VAL168      2612 RESIDUE  1 A VAL 
   169 LEU169      2628 RESIDUE  1 A LEU 
   170 GLU170      2647 RESIDUE  1 A GLU 
   171 PHE171      2662 RESIDUE  1 A PHE 
   172 MET172      2682 GROUP    0 A MET 
   173 ASP173      2699 RESIDUE  1 A ASP 
   174 ALA174      2711 RESIDUE  1 A ALA 
   175 LEU175      2721 RESIDUE  1 A LEU 
   176 THR176      2740 RESIDUE  1 A THR 
   177 SER177      2754 RESIDUE  1 A SER 
   178 ASN178      2765 RESIDUE  1 A ASN 
   179 ASP179      2779 RESIDUE  1 A ASP 
   180 ALA180      2791 RESIDUE  1 A ALA 
   181 ALA181      2801 RESIDUE  1 A ALA 
   182 LYS182      2811 RESIDUE  1 A LYS 
   183 LEU183      2833 RESIDUE  1 A LEU 
   184 ILE184      2852 RESIDUE  1 A ILE 
   185 LYS185      2871 RESIDUE  1 A LYS 
   186 TYR186      2893 RESIDUE  1 A TYR 
   187 PHE187      2914 RESIDUE  1 A PHE 
   188 ALA188      2934 RESIDUE  1 A ALA 
   189 GLU189      2944 RESIDUE  1 A GLU 
   190 ASP190      2959 RESIDUE  1 A ASP 
   191 THR191      2971 RESIDUE  1 A THR 
   192 MET192      2985 GROUP    0 A MET 
   193 TYR193      3002 RESIDUE  1 A TYR 
   194 GLN194      3023 RESIDUE  1 A GLN 
   195 ASN195      3040 RESIDUE  1 A ASN 
   196 MET196      3054 GROUP    0 A MET 
   197 PRO197      3071 RESIDUE  1 A PRO 
   198 LEU198      3085 RESIDUE  1 A LEU 
   199 PRO199      3104 RESIDUE  1 A PRO 
   200 PRO200      3118 RESIDUE  1 A PRO 
   201 ALA201      3132 RESIDUE  1 A ALA 
   202 TYR202      3142 RESIDUE  1 A TYR 
   203 GLY203      3163 RESIDUE  1 A GLY 
   204 ARG204      3170 RESIDUE  1 A ARG 
   205 ASP205      3194 RESIDUE  1 A ASP 
   206 ALA206      3206 RESIDUE  1 A ALA 
   207 VAL207      3216 RESIDUE  1 A VAL 
   208 GLU208      3232 RESIDUE  1 A GLU 
   209 GLN209      3247 RESIDUE  1 A GLN 
   210 THR210      3264 RESIDUE  1 A THR 
   211 LEU211      3278 RESIDUE  1 A LEU 
   212 ALA212      3297 RESIDUE  1 A ALA 
   213 GLY213      3307 RESIDUE  1 A GLY 
   214 LEU214      3314 RESIDUE  1 A LEU 
   215 PHE215      3333 RESIDUE  1 A PHE 
   216 LYS216      3353 RESIDUE  1 A LYS 
   217 VAL217      3375 RESIDUE  1 A VAL 
   218 MET218      3391 GROUP    0 A MET 
   219 SER219      3408 RESIDUE  1 A SER 
   220 ILE220      3419 RESIDUE  1 A ILE 
   221 ASP221      3438 RESIDUE  1 A ASP 
   222 ALA222      3450 RESIDUE  1 A ALA 
   223 VAL223      3460 RESIDUE  1 A VAL 
   224 GLU224      3476 RESIDUE  1 A GLU 
   225 VAL225      3491 RESIDUE  1 A VAL 
   226 PHE226      3507 RESIDUE  1 A PHE 
   227 HIP227      3527 RESIDUE  1 A HIP 
   228 ILE228      3545 RESIDUE  1 A ILE 
   229 GLY229      3564 RESIDUE  1 A GLY 
   230 SER230      3571 RESIDUE  1 A SER 
   231 SER231      3582 RESIDUE  1 A SER 
   232 LYS232      3593 RESIDUE  1 A LYS 
   233 GLY233      3615 RESIDUE  1 A GLY 
   234 LEU234      3622 RESIDUE  1 A LEU 
   235 VAL235      3641 RESIDUE  1 A VAL 
   236 PHE236      3657 RESIDUE  1 A PHE 
   237 THR237      3677 RESIDUE  1 A THR 
   238 GLU238      3691 RESIDUE  1 A GLU 
   239 ARG239      3706 RESIDUE  1 A ARG 
   240 VAL240      3730 RESIDUE  1 A VAL 
   241 ASH241      3746 RESIDUE  1 A ASH 
   242 VAL242      3759 RESIDUE  1 A VAL 
   243 LEU243      3775 RESIDUE  1 A LEU 
   244 ARG244      3794 RESIDUE  1 A ARG 
   245 ALA245      3818 RESIDUE  1 A ALA 
   246 LEU246      3828 RESIDUE  1 A LEU 
   247 PRO247      3847 RESIDUE  1 A PRO 
   248 THR248      3861 RESIDUE  1 A THR 
   249 GLY249      3875 RESIDUE  1 A GLY 
   250 LYS250      3882 RESIDUE  1 A LYS 
   251 SER251      3904 RESIDUE  1 A SER 
   252 TYR252      3915 RESIDUE  1 A TYR 
   253 ASN253      3936 RESIDUE  1 A ASN 
   254 LEU254      3950 RESIDUE  1 A LEU 
   255 SER255      3969 RESIDUE  1 A SER 
   256 ILE256      3980 RESIDUE  1 A ILE 
   257 LEU257      3999 RESIDUE  1 A LEU 
   258 GLY258      4018 RESIDUE  1 A GLY 
   259 VAL259      4025 RESIDUE  1 A VAL 
   260 PHE260      4041 RESIDUE  1 A PHE 
   261 GLN261      4061 RESIDUE  1 A GLN 
   262 LEU262      4078 RESIDUE  1 A LEU 
   263 THR263      4097 RESIDUE  1 A THR 
   264 ASP264      4111 RESIDUE  1 A ASP 
   265 GLY265      4123 RESIDUE  1 A GLY 
   266 LYS266      4130 RESIDUE  1 A LYS 
   267 ILE267      4152 RESIDUE  1 A ILE 
   268 THR268      4171 RESIDUE  1 A THR 
   269 GLY269      4185 RESIDUE  1 A GLY 
   270 TRP270      4192 RESIDUE  1 A TRP 
   271 ARG271      4216 RESIDUE  1 A ARG 
   272 ASP272      4240 RESIDUE  1 A ASP 
   273 TYR273      4252 RESIDUE  1 A TYR 
   274 PHE274      4273 RESIDUE  1 A PHE 
   275 ASP275      4293 RESIDUE  1 A ASP 
   276 LEU276      4305 RESIDUE  1 A LEU 
   277 ARG277      4324 RESIDUE  1 A ARG 
   278 GLU278      4348 RESIDUE  1 A GLU 
   279 PHE279      4363 RESIDUE  1 A PHE 
   280 GLU280      4383 RESIDUE  1 A GLU 
   281 GLU281      4398 RESIDUE  1 A GLU 
   282 ALA282      4413 RESIDUE  1 A ALA 
   283 VAL283      4423 RESIDUE  1 A VAL 
   284 ASP284      4439 RESIDUE  1 A ASP 
   285 LEU285      4451 RESIDUE  1 A LEU 
   286 PRO286      4470 RESIDUE  1 A PRO 
   287 LEU287      4484 RESIDUE  1 A LEU 
   288 ARG288      4503 RESIDUE  1 A ARG 
   289 GLY289      4527 RESIDUE  1 A GLY 
   290 LYS290      4534 RESIDUE  1 A LYS 
   291 LEU291      4556 RESIDUE  1 A LEU 
   292 GLY292      4575 RESIDUE  1 A GLY 
   293 PRO293      4582 RESIDUE  1 A PRO 
   294 GLU294      4596 RESIDUE  1 A GLU 
   295 GLN295      4611 RESIDUE  1 A GLN 
   296 LYS296      4628 RESIDUE  1 A LYS 
   297 LEU297      4650 RESIDUE  1 A LEU 
   298 ILE298      4669 RESIDUE  1 A ILE 
   299 SER299      4688 RESIDUE  1 A SER 
   300 STO300      4699 ****     0 A STO 
   301 HO2301      4726 ****     0 A HO2 
   302 STO302      4729 ****     0 A STO 
   303 HOH303      4756 ****     0 A HOH 
   304 HOH304      4759 ****     0 A HOH 
   305 HOH305      4762 ****     0 A HOH 
   306 HOH306      4765 ****     0 A HOH 
   307 HOH307      4768 ****     0 A HOH 
   308 HOH308      4771 ****     0 A HOH 
   309 HOH309      4774 ****     0 A HOH 
   310 HOH310      4777 ****     0 A HOH 
   311 HOH311      4780 ****     0 A HOH 
   312 HOH312      4783 ****     0 A HOH 
   313 HOH313      4786 ****     0 A HOH 
   314 HOH314      4789 ****     0 A HOH 
   315 HOH315      4792 ****     0 A HOH 
   316 HOH316      4795 ****     0 A HOH 
   317 HOH317      4798 ****     0 A HOH 
   318 HOH318      4801 ****     0 A HOH 
   319 HOH319      4804 ****     0 A HOH 
   320 HOH320      4807 ****     0 A HOH 
   321 HOH321      4810 ****     0 A HOH 
   322 HOH322      4813 ****     0 A HOH 
   323 HOH323      4816 ****     0 A HOH 
   324 HOH324      4819 ****     0 A HOH 
   325 HOH325      4822 ****     0 A HOH 
   326 HOH326      4825 ****     0 A HOH 
   327 HOH327      4828 ****     0 A HOH 
   328 HOH328      4831 ****     0 A HOH 
   329 HOH329      4834 ****     0 A HOH 
   330 HOH330      4837 ****     0 A HOH 
   331 HOH331      4840 ****     0 A HOH 
   332 HOH332      4843 ****     0 A HOH 
   333 HOH333      4846 ****     0 A HOH 
   334 HOH334      4849 ****     0 A HOH 
   335 HOH335      4852 ****     0 A HOH 
   336 HOH336      4855 ****     0 A HOH 
   337 HOH337      4858 ****     0 A HOH 
   338 HOH338      4861 ****     0 A HOH 
   339 HOH339      4864 ****     0 A HOH 
   340 HOH340      4867 ****     0 A HOH 
   341 HOH341      4870 ****     0 A HOH 
   342 HOH342      4873 ****     0 A HOH 
   343 HOH343      4876 ****     0 A HOH 
   344 HOH344      4879 ****     0 A HOH 
   345 HOH345      4882 ****     0 A HOH 
   346 HOH346      4885 ****     0 A HOH 
   347 HOH347      4888 ****     0 A HOH 
   348 HOH348      4891 ****     0 A HOH 
   349 HOH349      4894 ****     0 A HOH 
   350 HOH350      4897 ****     0 A HOH 
   351 HOH351      4900 ****     0 A HOH 
   352 HOH352      4903 ****     0 A HOH 
   353 HOH353      4906 ****     0 A HOH 
   354 HOH354      4909 ****     0 A HOH 
   355 HOH355      4912 ****     0 A HOH 
   356 HOH356      4915 ****     0 A HOH 
   357 HOH357      4918 ****     0 A HOH 
   358 HOH358      4921 ****     0 A HOH 
   359 HOH359      4924 ****     0 A HOH 
   360 HOH360      4927 ****     0 A HOH 
   361 HOH361      4930 ****     0 A HOH 
   362 HOH362      4933 ****     0 A HOH 
   363 HOH363      4936 ****     0 A HOH 
   364 HOH364      4939 ****     0 A HOH 
   365 HOH365      4942 ****     0 A HOH 
   366 HOH366      4945 ****     0 A HOH 
   367 HOH367      4948 ****     0 A HOH 
   368 HOH368      4951 ****     0 A HOH 
   369 HOH369      4954 ****     0 A HOH 
   370 HOH370      4957 ****     0 A HOH 
   371 HOH371      4960 ****     0 A HOH 
   372 HOH372      4963 ****     0 A HOH 
   373 HOH373      4966 ****     0 A HOH 
   374 HOH374      4969 ****     0 A HOH 
   375 HOH375      4972 ****     0 A HOH 
   376 HOH376      4975 ****     0 A HOH 
   377 HOH377      4978 ****     0 A HOH 
   378 HOH378      4981 ****     0 A HOH 
   379 HOH379      4984 ****     0 A HOH 
   380 HOH380      4987 ****     0 A HOH 
   381 HOH381      4990 ****     0 A HOH 
   382 HOH382      4993 ****     0 A HOH 
   383 HOH383      4996 ****     0 A HOH 
   384 HOH384      4999 ****     0 A HOH 
   385 HOH385      5002 ****     0 A HOH 
   386 HOH386      5005 ****     0 A HOH 
   387 HOH387      5008 ****     0 A HOH 
   388 HOH388      5011 ****     0 A HOH 
   389 HOH389      5014 ****     0 A HOH 
   390 HOH390      5017 ****     0 A HOH 
   391 HOH391      5020 ****     0 A HOH 
   392 HOH392      5023 ****     0 A HOH 
   393 HOH393      5026 ****     0 A HOH 
   394 HOH394      5029 ****     0 A HOH 
   395 HOH395      5032 ****     0 A HOH 
   396 HOH396      5035 ****     0 A HOH 
   397 HOH397      5038 ****     0 A HOH 
   398 HOH398      5041 ****     0 A HOH 
   399 HOH399      5044 ****     0 A HOH 
   400 HOH400      5047 ****     0 A HOH 
   401 HOH401      5050 ****     0 A HOH 
   402 HOH402      5053 ****     0 A HOH 
   403 HOH403      5056 ****     0 A HOH 
   404 HOH404      5059 ****     0 A HOH 
   405 HOH405      5062 ****     0 A HOH 
   406 HOH406      5065 ****     0 A HOH 
   407 HOH407      5068 ****     0 A HOH 
   408 HOH408      5071 ****     0 A HOH 
   409 HOH409      5074 ****     0 A HOH 
   410 HOH410      5077 ****     0 A HOH 
   411 HOH411      5080 ****     0 A HOH 
   412 HOH412      5083 ****     0 A HOH 
   413 HOH413      5086 ****     0 A HOH 
   414 HOH414      5089 ****     0 A HOH 
   415 HOH415      5092 ****     0 A HOH 
   416 HOH416      5095 ****     0 A HOH 
   417 HOH417      5098 ****     0 A HOH 
   418 HOH418      5101 ****     0 A HOH 
   419 HOH419      5104 ****     0 A HOH 
   420 HOH420      5107 ****     0 A HOH 
   421 HOH421      5110 ****     0 A HOH 
   422 HOH422      5113 ****     0 A HOH 
   423 HOH423      5116 ****     0 A HOH 
   424 HOH424      5119 ****     0 A HOH 
   425 HOH425      5122 ****     0 A HOH 
   426 HOH426      5125 ****     0 A HOH 
   427 HOH427      5128 ****     0 A HOH 
   428 HOH428      5131 ****     0 A HOH 
   429 HOH429      5134 ****     0 A HOH 
   430 HOH430      5137 ****     0 A HOH 
   431 HOH431      5140 ****     0 A HOH 
   432 HOH432      5143 ****     0 A HOH 
   433 HOH433      5146 ****     0 A HOH 
   434 HOH434      5149 ****     0 A HOH 
   435 HOH435      5152 ****     0 A HOH 
   436 HOH436      5155 ****     0 A HOH 
   437 HOH437      5158 ****     0 A HOH 
   438 HOH438      5161 ****     0 A HOH 
   439 HOH439      5164 ****     0 A HOH 
   440 HOH440      5167 ****     0 A HOH 
   441 HOH441      5170 ****     0 A HOH 
   442 HOH442      5173 ****     0 A HOH 
   443 HOH443      5176 ****     0 A HOH 
   444 HOH444      5179 ****     0 A HOH 
   445 HOH445      5182 ****     0 A HOH 
   446 HOH446      5185 ****     0 A HOH 
   447 HOH447      5188 ****     0 A HOH 
   448 HOH448      5191 ****     0 A HOH 
   449 HOH449      5194 ****     0 A HOH 
   450 HOH450      5197 ****     0 A HOH 
   451 HOH451      5200 ****     0 A HOH 
   452 HOH452      5203 ****     0 A HOH 
   453 HOH453      5206 ****     0 A HOH 
   454 HOH454      5209 ****     0 A HOH 
   455 HOH455      5212 ****     0 A HOH 
   456 HOH456      5215 ****     0 A HOH 
   457 HOH457      5218 ****     0 A HOH 
   458 HOH458      5221 ****     0 A HOH 
   459 HOH459      5224 ****     0 A HOH 
   460 HOH460      5227 ****     0 A HOH 
   461 HOH461      5230 ****     0 A HOH 
   462 HOH462      5233 ****     0 A HOH 
   463 HOH463      5236 ****     0 A HOH 
   464 HOH464      5239 ****     0 A HOH 
   465 HOH465      5242 ****     0 A HOH 
   466 HOH466      5245 ****     0 A HOH 
   467 HOH467      5248 ****     0 A HOH 
   468 HOH468      5251 ****     0 A HOH 
   469 HOH469      5254 ****     0 A HOH 
   470 HOH470      5257 ****     0 A HOH 
   471 HOH471      5260 ****     0 A HOH 
   472 HOH472      5263 ****     0 A HOH 
   473 HOH473      5266 ****     0 A HOH 
   474 HOH474      5269 ****     0 A HOH 
   475 HOH475      5272 ****     0 A HOH 
   476 HOH476      5275 ****     0 A HOH 
   477 HOH477      5278 ****     0 A HOH 
   478 HOH478      5281 ****     0 A HOH 
   479 HOH479      5284 ****     0 A HOH 
   480 HOH480      5287 ****     0 A HOH 
   481 HOH481      5290 ****     0 A HOH 
   482 HOH482      5293 ****     0 A HOH 
   483 HOH483      5296 ****     0 A HOH 
   484 HOH484      5299 ****     0 A HOH 
   485 HOH485      5302 ****     0 A HOH 
   486 HOH486      5305 ****     0 A HOH 
   487 HOH487      5308 ****     0 A HOH 
   488 HOH488      5311 ****     0 A HOH 
   489 HOH489      5314 ****     0 A HOH 
   490 HOH490      5317 ****     0 A HOH 
   491 HOH491      5320 ****     0 A HOH 
   492 HOH492      5323 ****     0 A HOH 
   493 HOH493      5326 ****     0 A HOH 
   494 HOH494      5329 ****     0 A HOH 
   495 HOH495      5332 ****     0 A HOH 
   496 HOH496      5335 ****     0 A HOH 
   497 HOH497      5338 ****     0 A HOH 
   498 HOH498      5341 ****     0 A HOH 
   499 HOH499      5344 ****     0 A HOH 
   500 HOH500      5347 ****     0 A HOH 
   501 HOH501      5350 ****     0 A HOH 
   502 HOH502      5353 ****     0 A HOH 
   503 HOH503      5356 ****     0 A HOH 
   504 HOH504      5359 ****     0 A HOH 
   505 HOH505      5362 ****     0 A HOH 
   506 HOH506      5365 ****     0 A HOH 
   507 HOH507      5368 ****     0 A HOH 
   508 HOH508      5371 ****     0 A HOH 
   509 HOH509      5374 ****     0 A HOH 
   510 HOH510      5377 ****     0 A HOH 
   511 HOH511      5380 ****     0 A HOH 
   512 HOH512      5383 ****     0 A HOH 
   513 HOH513      5386 ****     0 A HOH 
   514 HOH514      5389 ****     0 A HOH 
   515 HOH515      5392 ****     0 A HOH 
   516 HOH516      5395 ****     0 A HOH 
   517 HOH517      5398 ****     0 A HOH 
   518 HOH518      5401 ****     0 A HOH 
   519 HOH519      5404 ****     0 A HOH 
   520 HOH520      5407 ****     0 A HOH 
   521 HOH521      5410 ****     0 A HOH 
   522 HOH522      5413 ****     0 A HOH 
   523 HOH523      5416 ****     0 A HOH 
   524 HOH524      5419 ****     0 A HOH 
   525 HOH525      5422 ****     0 A HOH 
   526 HOH526      5425 ****     0 A HOH 
   527 HOH527      5428 ****     0 A HOH 
   528 HOH528      5431 ****     0 A HOH 
   529 HOH529      5434 ****     0 A HOH 
   530 HOH530      5437 ****     0 A HOH 
   531 HOH531      5440 ****     0 A HOH 
   532 HOH532      5443 ****     0 A HOH 
   533 HOH533      5446 ****     0 A HOH 
   534 HOH534      5449 ****     0 A HOH 
   535 HOH535      5452 ****     0 A HOH 
   536 HOH536      5455 ****     0 A HOH 
   537 HOH537      5458 ****     0 A HOH 
   538 HOH538      5461 ****     0 A HOH 
   539 HOH539      5464 ****     0 A HOH 
   540 HOH540      5467 ****     0 A HOH 
   541 HOH541      5470 ****     0 A HOH 
   542 HOH542      5473 ****     0 A HOH 
   543 HOH543      5476 ****     0 A HOH 
   544 HOH544      5479 ****     0 A HOH 
   545 HOH545      5482 ****     0 A HOH 
   546 HOH546      5485 ****     0 A HOH 
   547 HOH547      5488 ****     0 A HOH 
   548 HOH548      5491 ****     0 A HOH 
   549 HOH549      5494 ****     0 A HOH 
   550 HOH550      5497 ****     0 A HOH 
   551 HOH551      5500 ****     0 A HOH 
   552 HOH552      5503 ****     0 A HOH 
   553 HOH553      5506 ****     0 A HOH 
   554 HOH554      5509 ****     0 A HOH 
   555 HOH555      5512 ****     0 A HOH 
   556 HOH556      5515 ****     0 A HOH 
   557 HOH557      5518 ****     0 A HOH 
   558 HOH558      5521 ****     0 A HOH 
   559 HOH559      5524 ****     0 A HOH 
   560 HOH560      5527 ****     0 A HOH 
   561 HOH561      5530 ****     0 A HOH 
   562 HOH562      5533 ****     0 A HOH 
   563 HOH563      5536 ****     0 A HOH 
   564 HOH564      5539 ****     0 A HOH 
   565 HOH565      5542 ****     0 A HOH 
   566 HOH566      5545 ****     0 A HOH 
   567 HOH567      5548 ****     0 A HOH 
   568 HOH568      5551 ****     0 A HOH 
   569 HOH569      5554 ****     0 A HOH 
   570 HOH570      5557 ****     0 A HOH 
   571 HOH571      5560 ****     0 A HOH 
   572 HOH572      5563 ****     0 A HOH 
   573 HOH573      5566 ****     0 A HOH 
   574 HOH574      5569 ****     0 A HOH 
   575 HOH575      5572 ****     0 A HOH 
   576 HOH576      5575 ****     0 A HOH 
   577 HOH577      5578 ****     0 A HOH 
   578 HOH578      5581 ****     0 A HOH 
   579 HOH579      5584 ****     0 A HOH 
   580 HOH580      5587 ****     0 A HOH 
   581 HOH581      5590 ****     0 A HOH 
   582 HOH582      5593 ****     0 A HOH 
   583 HOH583      5596 ****     0 A HOH 
   584 HOH584      5599 ****     0 A HOH 
   585 HOH585      5602 ****     0 A HOH 
   586 HOH586      5605 ****     0 A HOH 
   587 HOH587      5608 ****     0 A HOH 
   588 HOH588      5611 ****     0 A HOH 
   589 HOH589      5614 ****     0 A HOH 
   590 HOH590      5617 ****     0 A HOH 
   591 HOH591      5620 ****     0 A HOH 
   592 HOH592      5623 ****     0 A HOH 
   593 HOH593      5626 ****     0 A HOH 
   594 HOH594      5629 ****     0 A HOH 
   595 HOH595      5632 ****     0 A HOH 
   596 HOH596      5635 ****     0 A HOH 
   597 HOH597      5638 ****     0 A HOH 
   598 HOH598      5641 ****     0 A HOH 
   599 HOH599      5644 ****     0 A HOH 
   600 HOH600      5647 ****     0 A HOH 
   601 HOH601      5650 ****     0 A HOH 
   602 HOH602      5653 ****     0 A HOH 
   603 HOH603      5656 ****     0 A HOH 
   604 HOH604      5659 ****     0 A HOH 
   605 HOH605      5662 ****     0 A HOH 
   606 HOH606      5665 ****     0 A HOH 
   607 HOH607      5668 ****     0 A HOH 
   608 HOH608      5671 ****     0 A HOH 
   609 HOH609      5674 ****     0 A HOH 
   610 HOH610      5677 ****     0 A HOH 
   611 HOH611      5680 ****     0 A HOH 
   612 HOH612      5683 ****     0 A HOH 
   613 HOH613      5686 ****     0 A HOH 
   614 HOH614      5689 ****     0 A HOH 
   615 HOH615      5692 ****     0 A HOH 
   616 HOH616      5695 ****     0 A HOH 
   617 HOH617      5698 ****     0 A HOH 
   618 HOH618      5701 ****     0 A HOH 
   619 HOH619      5704 ****     0 A HOH 
   620 HOH620      5707 ****     0 A HOH 
   621 HOH621      5710 ****     0 A HOH 
   622 HOH622      5713 ****     0 A HOH 
   623 HOH623      5716 ****     0 A HOH 
   624 HOH624      5719 ****     0 A HOH 
   625 HOH625      5722 ****     0 A HOH 
   626 HOH626      5725 ****     0 A HOH 
   627 HOH627      5728 ****     0 A HOH 
   628 HOH628      5731 ****     0 A HOH 
   629 HOH629      5734 ****     0 A HOH 
   630 HOH630      5737 ****     0 A HOH 
   631 HOH631      5740 ****     0 A HOH 
   632 HOH632      5743 ****     0 A HOH 
   633 HOH633      5746 ****     0 A HOH 
   634 HOH634      5749 ****     0 A HOH 
   635 HOH635      5752 ****     0 A HOH 
   636 HOH636      5755 ****     0 A HOH 
   637 HOH637      5758 ****     0 A HOH 
   638 HOH638      5761 ****     0 A HOH 
   639 HOH639      5764 ****     0 A HOH 
   640 HOH640      5767 ****     0 A HOH 
   641 HOH641      5770 ****     0 A HOH 
   642 HOH642      5773 ****     0 A HOH 
   643 HOH643      5776 ****     0 A HOH 
   644 HOH644      5779 ****     0 A HOH 
   645 HOH645      5782 ****     0 A HOH 
   646 HOH646      5785 ****     0 A HOH 
   647 HOH647      5788 ****     0 A HOH 
   648 HOH648      5791 ****     0 A HOH 
   649 HOH649      5794 ****     0 A HOH 
   650 HOH650      5797 ****     0 A HOH 
   651 HOH651      5800 ****     0 A HOH 
   652 HOH652      5803 ****     0 A HOH 
   653 HOH653      5806 ****     0 A HOH 
   654 HOH654      5809 ****     0 A HOH 
   655 HOH655      5812 ****     0 A HOH 
   656 HOH656      5815 ****     0 A HOH 
   657 HOH657      5818 ****     0 A HOH 
   658 HOH658      5821 ****     0 A HOH 
   659 HOH659      5824 ****     0 A HOH 
   660 HOH660      5827 ****     0 A HOH 
   661 HOH661      5830 ****     0 A HOH 
   662 HOH662      5833 ****     0 A HOH 
   663 HOH663      5836 ****     0 A HOH 
   664 HOH664      5839 ****     0 A HOH 
   665 HOH665      5842 ****     0 A HOH 
   666 HOH666      5845 ****     0 A HOH 
   667 HOH667      5848 ****     0 A HOH 
   668 HOH668      5851 ****     0 A HOH 
   669 HOH669      5854 ****     0 A HOH 
   670 HOH670      5857 ****     0 A HOH 
   671 HOH671      5860 ****     0 A HOH 
   672 HOH672      5863 ****     0 A HOH 
   673 HOH673      5866 ****     0 A HOH 
   674 HOH674      5869 ****     0 A HOH 
   675 HOH675      5872 ****     0 A HOH 
   676 HOH676      5875 ****     0 A HOH 
   677 HOH677      5878 ****     0 A HOH 
   678 HOH678      5881 ****     0 A HOH 
   679 HOH679      5884 ****     0 A HOH 
   680 HOH680      5887 ****     0 A HOH 
   681 HOH681      5890 ****     0 A HOH 
   682 HOH682      5893 ****     0 A HOH 
   683 HOH683      5896 ****     0 A HOH 
   684 HOH684      5899 ****     0 A HOH 
   685 HOH685      5902 ****     0 A HOH 
   686 HOH686      5905 ****     0 A HOH 
   687 HOH687      5908 ****     0 A HOH 
   688 HOH688      5911 ****     0 A HOH 
   689 HOH689      5914 ****     0 A HOH 
   690 HOH690      5917 ****     0 A HOH 
   691 HOH691      5920 ****     0 A HOH 
   692 HOH692      5923 ****     0 A HOH 
   693 HOH693      5926 ****     0 A HOH 
   694 HOH694      5929 ****     0 A HOH 
   695 HOH695      5932 ****     0 A HOH 
   696 HOH696      5935 ****     0 A HOH 
   697 HOH697      5938 ****     0 A HOH 
   698 HOH698      5941 ****     0 A HOH 
   699 HOH699      5944 ****     0 A HOH 
   700 HOH700      5947 ****     0 A HOH 
   701 HOH701      5950 ****     0 A HOH 
   702 HOH702      5953 ****     0 A HOH 
   703 HOH703      5956 ****     0 A HOH 
   704 HOH704      5959 ****     0 A HOH 
   705 HOH705      5962 ****     0 A HOH 
   706 HOH706      5965 ****     0 A HOH 
   707 HOH707      5968 ****     0 A HOH 
   708 HOH708      5971 ****     0 A HOH 
   709 HOH709      5974 ****     0 A HOH 
   710 HOH710      5977 ****     0 A HOH 
   711 HOH711      5980 ****     0 A HOH 
   712 HOH712      5983 ****     0 A HOH 
   713 HOH713      5986 ****     0 A HOH 
   714 HOH714      5989 ****     0 A HOH 
   715 HOH715      5992 ****     0 A HOH 
   716 HOH716      5995 ****     0 A HOH 
   717 HOH717      5998 ****     0 A HOH 
   718 HOH718      6001 ****     0 A HOH 
   719 HOH719      6004 ****     0 A HOH 
   720 HOH720      6007 ****     0 A HOH 
   721 HOH721      6010 ****     0 A HOH 
   722 HOH722      6013 ****     0 A HOH 
   723 HOH723      6016 ****     0 A HOH 
   724 HOH724      6019 ****     0 A HOH 
   725 HOH725      6022 ****     0 A HOH 
